=== MAP COLORING LOG ===
Started at: Thu Nov 20 16:52:57 2025
========================================

MAP COLORING PROCESS STARTED
============================
Input file: test5.bmp
Output file: out.bmp
Log file: map_coloring_log_out.bmp.txt

STEP -1: Reading BMP file
=========================
BMP file read successfully
Image dimensions: 200 x 200 pixels

STEP -2: Region detection
=========================
Region detection completed successfully
Total regions found: 1078

STEP 0: Building adjacency graph
=================================
Image dimensions: 200 x 200
Number of regions: 1078
Added edge: Region 10 <-> Region 2
Added edge: Region 2 <-> Region 25
Added edge: Region 3 <-> Region 2
Added edge: Region 4 <-> Region 5
Added edge: Region 13 <-> Region 12
Added edge: Region 15 <-> Region 27
Added edge: Region 16 <-> Region 27
Added edge: Region 17 <-> Region 16
Added edge: Region 22 <-> Region 28
Added edge: Region 23 <-> Region 28
Added edge: Region 23 <-> Region 6
Added edge: Region 8 <-> Region 29
Added edge: Region 24 <-> Region 8
Added edge: Region 24 <-> Region 29
Added edge: Region 24 <-> Region 9
Added edge: Region 25 <-> Region 10
Added edge: Region 25 <-> Region 30
Added edge: Region 3 <-> Region 30
Added edge: Region 14 <-> Region 31
Added edge: Region 27 <-> Region 26
Added edge: Region 19 <-> Region 34
Added edge: Region 22 <-> Region 36
Added edge: Region 28 <-> Region 6
Added edge: Region 29 <-> Region 37
Added edge: Region 5 <-> Region 39
Added edge: Region 12 <-> Region 40
Added edge: Region 32 <-> Region 26
Added edge: Region 19 <-> Region 42
Added edge: Region 34 <-> Region 35
Added edge: Region 10 <-> Region 43
Added edge: Region 38 <-> Region 44
Added edge: Region 5 <-> Region 44
Added edge: Region 40 <-> Region 45
Added edge: Region 31 <-> Region 32
Added edge: Region 42 <-> Region 47
Added edge: Region 35 <-> Region 48
Added edge: Region 6 <-> Region 49
Added edge: Region 7 <-> Region 50
Added edge: Region 12 <-> Region 51
Added edge: Region 26 <-> Region 52
Added edge: Region 41 <-> Region 53
Added edge: Region 42 <-> Region 46
Added edge: Region 36 <-> Region 49
Added edge: Region 30 <-> Region 43
Added edge: Region 38 <-> Region 30
Added edge: Region 52 <-> Region 55
Added edge: Region 54 <-> Region 53
Added edge: Region 46 <-> Region 56
Added edge: Region 48 <-> Region 58
Added edge: Region 51 <-> Region 60
Added edge: Region 51 <-> Region 45
Added edge: Region 55 <-> Region 61
Added edge: Region 53 <-> Region 61
Added edge: Region 46 <-> Region 62
Added edge: Region 56 <-> Region 63
Added edge: Region 57 <-> Region 58
Added edge: Region 50 <-> Region 65
Added edge: Region 1 <-> Region 66
Added edge: Region 1 <-> Region 67
Added edge: Region 44 <-> Region 68
Added edge: Region 59 <-> Region 69
Added edge: Region 62 <-> Region 71
Added edge: Region 63 <-> Region 71
Added edge: Region 63 <-> Region 57
Added edge: Region 64 <-> Region 58
Added edge: Region 64 <-> Region 72
Added edge: Region 49 <-> Region 73
Added edge: Region 37 <-> Region 65
Added edge: Region 68 <-> Region 69
Added edge: Region 60 <-> Region 74
Added edge: Region 46 <-> Region 53
Added edge: Region 71 <-> Region 57
Added edge: Region 45 <-> Region 78
Added edge: Region 75 <-> Region 79
Added edge: Region 72 <-> Region 73
Added edge: Region 76 <-> Region 82
Added edge: Region 74 <-> Region 85
Added edge: Region 78 <-> Region 88
Added edge: Region 79 <-> Region 89
Added edge: Region 71 <-> Region 90
Added edge: Region 57 <-> Region 90
Added edge: Region 73 <-> Region 81
Added edge: Region 82 <-> Region 91
Added edge: Region 43 <-> Region 95
Added edge: Region 69 <-> Region 96
Added edge: Region 86 <-> Region 85
Added edge: Region 79 <-> Region 80
Added edge: Region 80 <-> Region 55
Added edge: Region 90 <-> Region 58
Added edge: Region 94 <-> Region 100
Added edge: Region 83 <-> Region 95
Added edge: Region 68 <-> Region 102
Added edge: Region 88 <-> Region 97
Added edge: Region 98 <-> Region 103
Added edge: Region 98 <-> Region 104
Added edge: Region 71 <-> Region 104
Added edge: Region 58 <-> Region 105
Added edge: Region 72 <-> Region 105
Added edge: Region 101 <-> Region 100
Added edge: Region 101 <-> Region 107
Added edge: Region 102 <-> Region 96
Added edge: Region 85 <-> Region 108
Added edge: Region 89 <-> Region 109
Added edge: Region 71 <-> Region 58
Added edge: Region 81 <-> Region 110
Added edge: Region 95 <-> Region 111
Added edge: Region 109 <-> Region 97
Added edge: Region 109 <-> Region 113
Added edge: Region 104 <-> Region 103
Added edge: Region 92 <-> Region 115
Added edge: Region 96 <-> Region 117
Added edge: Region 97 <-> Region 118
Added edge: Region 113 <-> Region 97
Added edge: Region 114 <-> Region 119
Added edge: Region 55 <-> Region 120
Added edge: Region 103 <-> Region 121
Added edge: Region 92 <-> Region 122
Added edge: Region 115 <-> Region 122
Added edge: Region 115 <-> Region 99
Added edge: Region 111 <-> Region 125
Added edge: Region 108 <-> Region 118
Added edge: Region 120 <-> Region 119
Added edge: Region 116 <-> Region 123
Added edge: Region 125 <-> Region 124
Added edge: Region 120 <-> Region 130
Added edge: Region 61 <-> Region 130
Added edge: Region 61 <-> Region 131
Added edge: Region 103 <-> Region 132
Added edge: Region 126 <-> Region 133
Added edge: Region 58 <-> Region 133
Added edge: Region 122 <-> Region 99
Added edge: Region 129 <-> Region 134
Added edge: Region 117 <-> Region 135
Added edge: Region 61 <-> Region 136
Added edge: Region 131 <-> Region 121
Added edge: Region 116 <-> Region 137
Added edge: Region 124 <-> Region 137
Added edge: Region 128 <-> Region 138
Added edge: Region 134 <-> Region 135
Added edge: Region 97 <-> Region 140
Added edge: Region 119 <-> Region 141
Added edge: Region 61 <-> Region 142
Added edge: Region 136 <-> Region 121
Added edge: Region 121 <-> Region 143
Added edge: Region 132 <-> Region 143
Added edge: Region 105 <-> Region 144
Added edge: Region 73 <-> Region 144
Added edge: Region 91 <-> Region 145
Added edge: Region 97 <-> Region 148
Added edge: Region 133 <-> Region 150
Added edge: Region 124 <-> Region 151
Added edge: Region 139 <-> Region 147
Added edge: Region 141 <-> Region 152
Added edge: Region 130 <-> Region 153
Added edge: Region 149 <-> Region 153
Added edge: Region 121 <-> Region 154
Added edge: Region 132 <-> Region 150
Added edge: Region 151 <-> Region 146
Added edge: Region 138 <-> Region 146
Added edge: Region 135 <-> Region 139
Added edge: Region 148 <-> Region 147
Added edge: Region 148 <-> Region 156
Added edge: Region 152 <-> Region 157
Added edge: Region 130 <-> Region 158
Added edge: Region 153 <-> Region 154
Added edge: Region 143 <-> Region 159
Added edge: Region 150 <-> Region 159
Added edge: Region 144 <-> Region 160
Added edge: Region 123 <-> Region 161
Added edge: Region 151 <-> Region 155
Added edge: Region 143 <-> Region 165
Added edge: Region 150 <-> Region 166
Added edge: Region 133 <-> Region 166
Added edge: Region 91 <-> Region 110
Added edge: Region 161 <-> Region 167
Added edge: Region 148 <-> Region 168
Added edge: Region 158 <-> Region 163
Added edge: Region 163 <-> Region 164
Added edge: Region 165 <-> Region 169
Added edge: Region 81 <-> Region 160
Added edge: Region 161 <-> Region 170
Added edge: Region 162 <-> Region 170
Added edge: Region 135 <-> Region 171
Added edge: Region 148 <-> Region 172
Added edge: Region 164 <-> Region 169
Added edge: Region 105 <-> Region 174
Added edge: Region 145 <-> Region 175
Added edge: Region 146 <-> Region 177
Added edge: Region 168 <-> Region 157
Added edge: Region 151 <-> Region 180
Added edge: Region 172 <-> Region 181
Added edge: Region 152 <-> Region 182
Added edge: Region 169 <-> Region 173
Added edge: Region 178 <-> Region 183
Added edge: Region 160 <-> Region 185
Added edge: Region 180 <-> Region 179
Added edge: Region 180 <-> Region 186
Added edge: Region 177 <-> Region 188
Added edge: Region 147 <-> Region 189
Added edge: Region 181 <-> Region 157
Added edge: Region 183 <-> Region 190
Added edge: Region 184 <-> Region 185
Added edge: Region 110 <-> Region 191
Added edge: Region 110 <-> Region 192
Added edge: Region 186 <-> Region 187
Added edge: Region 187 <-> Region 188
Added edge: Region 171 <-> Region 193
Added edge: Region 172 <-> Region 189
Added edge: Region 182 <-> Region 194
Added edge: Region 173 <-> Region 195
Added edge: Region 190 <-> Region 195
Added edge: Region 190 <-> Region 196
Added edge: Region 183 <-> Region 196
Added edge: Region 183 <-> Region 197
Added edge: Region 184 <-> Region 198
Added edge: Region 186 <-> Region 179
Added edge: Region 193 <-> Region 188
Added edge: Region 198 <-> Region 197
Added edge: Region 185 <-> Region 200
Added edge: Region 185 <-> Region 201
Added edge: Region 199 <-> Region 193
Added edge: Region 147 <-> Region 204
Added edge: Region 157 <-> Region 205
Added edge: Region 182 <-> Region 205
Added edge: Region 196 <-> Region 206
Added edge: Region 197 <-> Region 206
Added edge: Region 198 <-> Region 200
Added edge: Region 201 <-> Region 207
Added edge: Region 191 <-> Region 207
Added edge: Region 191 <-> Region 202
Added edge: Region 99 <-> Region 210
Added edge: Region 179 <-> Region 211
Added edge: Region 189 <-> Region 212
Added edge: Region 195 <-> Region 213
Added edge: Region 200 <-> Region 214
Added edge: Region 207 <-> Region 214
Added edge: Region 208 <-> Region 209
Added edge: Region 211 <-> Region 215
Added edge: Region 193 <-> Region 216
Added edge: Region 193 <-> Region 217
Added edge: Region 203 <-> Region 217
Added edge: Region 203 <-> Region 204
Added edge: Region 204 <-> Region 212
Added edge: Region 157 <-> Region 218
Added edge: Region 173 <-> Region 219
Added edge: Region 195 <-> Region 219
Added edge: Region 206 <-> Region 213
Added edge: Region 191 <-> Region 220
Added edge: Region 179 <-> Region 221
Added edge: Region 216 <-> Region 188
Added edge: Region 218 <-> Region 222
Added edge: Region 205 <-> Region 223
Added edge: Region 194 <-> Region 224
Added edge: Region 219 <-> Region 213
Added edge: Region 193 <-> Region 226
Added edge: Region 217 <-> Region 227
Added edge: Region 204 <-> Region 227
Added edge: Region 222 <-> Region 228
Added edge: Region 222 <-> Region 223
Added edge: Region 194 <-> Region 230
Added edge: Region 176 <-> Region 231
Added edge: Region 188 <-> Region 225
Added edge: Region 227 <-> Region 232
Added edge: Region 212 <-> Region 232
Added edge: Region 223 <-> Region 229
Added edge: Region 224 <-> Region 233
Added edge: Region 173 <-> Region 213
Added edge: Region 220 <-> Region 214
Added edge: Region 210 <-> Region 234
Added edge: Region 221 <-> Region 215
Added edge: Region 223 <-> Region 235
Added edge: Region 230 <-> Region 229
Added edge: Region 230 <-> Region 233
Added edge: Region 169 <-> Region 236
Added edge: Region 173 <-> Region 237
Added edge: Region 214 <-> Region 238
Added edge: Region 220 <-> Region 239
Added edge: Region 202 <-> Region 239
Added edge: Region 231 <-> Region 240
Added edge: Region 176 <-> Region 240
Added edge: Region 217 <-> Region 241
Added edge: Region 208 <-> Region 243
Added edge: Region 209 <-> Region 243
Added edge: Region 209 <-> Region 244
Added edge: Region 221 <-> Region 245
Added edge: Region 225 <-> Region 246
Added edge: Region 226 <-> Region 188
Added edge: Region 212 <-> Region 247
Added edge: Region 236 <-> Region 248
Added edge: Region 242 <-> Region 248
Added edge: Region 242 <-> Region 249
Added edge: Region 213 <-> Region 250
Added edge: Region 213 <-> Region 251
Added edge: Region 206 <-> Region 251
Added edge: Region 206 <-> Region 252
Added edge: Region 238 <-> Region 253
Added edge: Region 234 <-> Region 255
Added edge: Region 241 <-> Region 232
Added edge: Region 248 <-> Region 249
Added edge: Region 249 <-> Region 250
Added edge: Region 251 <-> Region 250
Added edge: Region 253 <-> Region 256
Added edge: Region 238 <-> Region 256
Added edge: Region 244 <-> Region 257
Added edge: Region 215 <-> Region 258
Added edge: Region 245 <-> Region 258
Added edge: Region 193 <-> Region 259
Added edge: Region 247 <-> Region 235
Added edge: Region 235 <-> Region 260
Added edge: Region 256 <-> Region 262
Added edge: Region 239 <-> Region 263
Added edge: Region 245 <-> Region 246
Added edge: Region 226 <-> Region 264
Added edge: Region 232 <-> Region 265
Added edge: Region 247 <-> Region 265
Added edge: Region 229 <-> Region 260
Added edge: Region 229 <-> Region 266
Added edge: Region 233 <-> Region 266
Added edge: Region 250 <-> Region 267
Added edge: Region 257 <-> Region 269
Added edge: Region 255 <-> Region 270
Added edge: Region 259 <-> Region 241
Added edge: Region 233 <-> Region 271
Added edge: Region 261 <-> Region 267
Added edge: Region 261 <-> Region 262
Added edge: Region 268 <-> Region 262
Added edge: Region 188 <-> Region 273
Added edge: Region 259 <-> Region 264
Added edge: Region 240 <-> Region 276
Added edge: Region 271 <-> Region 278
Added edge: Region 272 <-> Region 268
Added edge: Region 275 <-> Region 279
Added edge: Region 263 <-> Region 279
Added edge: Region 240 <-> Region 280
Added edge: Region 276 <-> Region 280
Added edge: Region 260 <-> Region 277
Added edge: Region 250 <-> Region 281
Added edge: Region 269 <-> Region 282
Added edge: Region 258 <-> Region 283
Added edge: Region 264 <-> Region 273
Added edge: Region 264 <-> Region 284
Added edge: Region 241 <-> Region 284
Added edge: Region 278 <-> Region 285
Added edge: Region 281 <-> Region 285
Added edge: Region 281 <-> Region 286
Added edge: Region 250 <-> Region 286
Added edge: Region 272 <-> Region 287
Added edge: Region 279 <-> Region 289
Added edge: Region 270 <-> Region 290
Added edge: Region 258 <-> Region 291
Added edge: Region 286 <-> Region 285
Added edge: Region 286 <-> Region 292
Added edge: Region 250 <-> Region 292
Added edge: Region 267 <-> Region 293
Added edge: Region 262 <-> Region 293
Added edge: Region 268 <-> Region 294
Added edge: Region 287 <-> Region 288
Added edge: Region 279 <-> Region 288
Added edge: Region 279 <-> Region 295
Added edge: Region 246 <-> Region 291
Added edge: Region 265 <-> Region 297
Added edge: Region 260 <-> Region 298
Added edge: Region 266 <-> Region 298
Added edge: Region 292 <-> Region 285
Added edge: Region 292 <-> Region 299
Added edge: Region 250 <-> Region 299
Added edge: Region 262 <-> Region 300
Added edge: Region 287 <-> Region 294
Added edge: Region 295 <-> Region 289
Added edge: Region 280 <-> Region 301
Added edge: Region 246 <-> Region 302
Added edge: Region 296 <-> Region 302
Added edge: Region 296 <-> Region 303
Added edge: Region 273 <-> Region 303
Added edge: Region 299 <-> Region 285
Added edge: Region 299 <-> Region 304
Added edge: Region 250 <-> Region 304
Added edge: Region 294 <-> Region 300
Added edge: Region 265 <-> Region 305
Added edge: Region 277 <-> Region 306
Added edge: Region 298 <-> Region 306
Added edge: Region 298 <-> Region 307
Added edge: Region 266 <-> Region 307
Added edge: Region 266 <-> Region 308
Added edge: Region 271 <-> Region 308
Added edge: Region 271 <-> Region 309
Added edge: Region 278 <-> Region 309
Added edge: Region 304 <-> Region 285
Added edge: Region 304 <-> Region 310
Added edge: Region 250 <-> Region 310
Added edge: Region 294 <-> Region 311
Added edge: Region 288 <-> Region 311
Added edge: Region 303 <-> Region 302
Added edge: Region 307 <-> Region 306
Added edge: Region 271 <-> Region 313
Added edge: Region 309 <-> Region 313
Added edge: Region 309 <-> Region 285
Added edge: Region 310 <-> Region 285
Added edge: Region 293 <-> Region 314
Added edge: Region 291 <-> Region 315
Added edge: Region 266 <-> Region 306
Added edge: Region 313 <-> Region 285
Added edge: Region 267 <-> Region 317
Added edge: Region 300 <-> Region 318
Added edge: Region 311 <-> Region 318
Added edge: Region 312 <-> Region 320
Added edge: Region 315 <-> Region 321
Added edge: Region 273 <-> Region 322
Added edge: Region 285 <-> Region 323
Added edge: Region 317 <-> Region 323
Added edge: Region 267 <-> Region 324
Added edge: Region 300 <-> Region 314
Added edge: Region 302 <-> Region 326
Added edge: Region 324 <-> Region 314
Added edge: Region 288 <-> Region 328
Added edge: Region 295 <-> Region 328
Added edge: Region 321 <-> Region 329
Added edge: Region 297 <-> Region 330
Added edge: Region 306 <-> Region 331
Added edge: Region 327 <-> Region 331
Added edge: Region 327 <-> Region 332
Added edge: Region 308 <-> Region 332
Added edge: Region 326 <-> Region 333
Added edge: Region 326 <-> Region 334
Added edge: Region 302 <-> Region 334
Added edge: Region 302 <-> Region 335
Added edge: Region 322 <-> Region 335
Added edge: Region 330 <-> Region 277
Added edge: Region 323 <-> Region 336
Added edge: Region 318 <-> Region 337
Added edge: Region 282 <-> Region 289
Added edge: Region 290 <-> Region 338
Added edge: Region 333 <-> Region 329
Added edge: Region 334 <-> Region 339
Added edge: Region 305 <-> Region 341
Added edge: Region 297 <-> Region 341
Added edge: Region 332 <-> Region 331
Added edge: Region 271 <-> Region 342
Added edge: Region 324 <-> Region 343
Added edge: Region 290 <-> Region 282
Added edge: Region 335 <-> Region 346
Added edge: Region 335 <-> Region 347
Added edge: Region 322 <-> Region 347
Added edge: Region 297 <-> Region 348
Added edge: Region 342 <-> Region 285
Added edge: Region 285 <-> Region 349
Added edge: Region 343 <-> Region 336
Added edge: Region 343 <-> Region 350
Added edge: Region 324 <-> Region 350
Added edge: Region 339 <-> Region 345
Added edge: Region 346 <-> Region 345
Added edge: Region 305 <-> Region 352
Added edge: Region 308 <-> Region 353
Added edge: Region 349 <-> Region 336
Added edge: Region 350 <-> Region 336
Added edge: Region 350 <-> Region 354
Added edge: Region 324 <-> Region 354
Added edge: Region 328 <-> Region 355
Added edge: Region 295 <-> Region 355
Added edge: Region 351 <-> Region 356
Added edge: Region 329 <-> Region 356
Added edge: Region 322 <-> Region 352
Added edge: Region 285 <-> Region 336
Added edge: Region 354 <-> Region 336
Added edge: Region 354 <-> Region 357
Added edge: Region 324 <-> Region 357
Added edge: Region 282 <-> Region 358
Added edge: Region 329 <-> Region 359
Added edge: Region 353 <-> Region 362
Added edge: Region 353 <-> Region 363
Added edge: Region 285 <-> Region 364
Added edge: Region 357 <-> Region 336
Added edge: Region 357 <-> Region 365
Added edge: Region 324 <-> Region 365
Added edge: Region 344 <-> Region 366
Added edge: Region 359 <-> Region 356
Added edge: Region 361 <-> Region 367
Added edge: Region 361 <-> Region 306
Added edge: Region 332 <-> Region 368
Added edge: Region 362 <-> Region 368
Added edge: Region 364 <-> Region 336
Added edge: Region 365 <-> Region 336
Added edge: Region 365 <-> Region 370
Added edge: Region 297 <-> Region 373
Added edge: Region 368 <-> Region 374
Added edge: Region 369 <-> Region 375
Added edge: Region 370 <-> Region 336
Added edge: Region 370 <-> Region 376
Added edge: Region 314 <-> Region 376
Added edge: Region 337 <-> Region 377
Added edge: Region 356 <-> Region 378
Added edge: Region 372 <-> Region 379
Added edge: Region 341 <-> Region 380
Added edge: Region 297 <-> Region 381
Added edge: Region 373 <-> Region 381
Added edge: Region 373 <-> Region 382
Added edge: Region 367 <-> Region 382
Added edge: Region 367 <-> Region 306
Added edge: Region 332 <-> Region 383
Added edge: Region 374 <-> Region 383
Added edge: Region 374 <-> Region 375
Added edge: Region 376 <-> Region 384
Added edge: Region 314 <-> Region 384
Added edge: Region 314 <-> Region 377
Added edge: Region 295 <-> Region 337
Added edge: Region 371 <-> Region 378
Added edge: Region 345 <-> Region 385
Added edge: Region 331 <-> Region 386
Added edge: Region 383 <-> Region 375
Added edge: Region 375 <-> Region 387
Added edge: Region 384 <-> Region 388
Added edge: Region 384 <-> Region 389
Added edge: Region 314 <-> Region 389
Added edge: Region 345 <-> Region 390
Added edge: Region 345 <-> Region 391
Added edge: Region 385 <-> Region 391
Added edge: Region 385 <-> Region 392
Added edge: Region 379 <-> Region 393
Added edge: Region 372 <-> Region 393
Added edge: Region 381 <-> Region 394
Added edge: Region 382 <-> Region 394
Added edge: Region 336 <-> Region 395
Added edge: Region 336 <-> Region 388
Added edge: Region 389 <-> Region 388
Added edge: Region 389 <-> Region 396
Added edge: Region 314 <-> Region 396
Added edge: Region 314 <-> Region 397
Added edge: Region 372 <-> Region 399
Added edge: Region 380 <-> Region 399
Added edge: Region 386 <-> Region 402
Added edge: Region 383 <-> Region 402
Added edge: Region 396 <-> Region 388
Added edge: Region 397 <-> Region 377
Added edge: Region 391 <-> Region 404
Added edge: Region 392 <-> Region 404
Added edge: Region 392 <-> Region 405
Added edge: Region 393 <-> Region 405
Added edge: Region 380 <-> Region 400
Added edge: Region 401 <-> Region 400
Added edge: Region 395 <-> Region 387
Added edge: Region 388 <-> Region 407
Added edge: Region 397 <-> Region 408
Added edge: Region 289 <-> Region 409
Added edge: Region 378 <-> Region 410
Added edge: Region 390 <-> Region 411
Added edge: Region 391 <-> Region 411
Added edge: Region 399 <-> Region 393
Added edge: Region 400 <-> Region 412
Added edge: Region 406 <-> Region 413
Added edge: Region 331 <-> Region 414
Added edge: Region 408 <-> Region 407
Added edge: Region 408 <-> Region 415
Added edge: Region 337 <-> Region 416
Added edge: Region 403 <-> Region 416
Added edge: Region 414 <-> Region 417
Added edge: Region 331 <-> Region 418
Added edge: Region 404 <-> Region 405
Added edge: Region 412 <-> Region 413
Added edge: Region 417 <-> Region 423
Added edge: Region 418 <-> Region 423
Added edge: Region 418 <-> Region 424
Added edge: Region 419 <-> Region 420
Added edge: Region 386 <-> Region 432
Added edge: Region 425 <-> Region 426
Added edge: Region 427 <-> Region 426
Added edge: Region 428 <-> Region 427
Added edge: Region 429 <-> Region 428
Added edge: Region 421 <-> Region 420
Added edge: Region 411 <-> Region 440
Added edge: Region 432 <-> Region 433
Added edge: Region 433 <-> Region 434
Added edge: Region 434 <-> Region 435
Added edge: Region 437 <-> Region 436
Added edge: Region 438 <-> Region 437
Added edge: Region 438 <-> Region 439
Added edge: Region 439 <-> Region 425
Added edge: Region 429 <-> Region 430
Added edge: Region 431 <-> Region 449
Added edge: Region 420 <-> Region 450
Added edge: Region 443 <-> Region 442
Added edge: Region 444 <-> Region 456
Added edge: Region 445 <-> Region 457
Added edge: Region 448 <-> Region 447
Added edge: Region 432 <-> Region 448
Added edge: Region 436 <-> Region 435
Added edge: Region 431 <-> Region 430
Added edge: Region 450 <-> Region 449
Added edge: Region 450 <-> Region 459
Added edge: Region 420 <-> Region 459
Added edge: Region 422 <-> Region 421
Added edge: Region 453 <-> Region 454
Added edge: Region 440 <-> Region 441
Added edge: Region 441 <-> Region 442
Added edge: Region 445 <-> Region 460
Added edge: Region 447 <-> Region 458
Added edge: Region 427 <-> Region 461
Added edge: Region 428 <-> Region 461
Added edge: Region 459 <-> Region 449
Added edge: Region 459 <-> Region 462
Added edge: Region 420 <-> Region 462
Added edge: Region 422 <-> Region 463
Added edge: Region 452 <-> Region 464
Added edge: Region 455 <-> Region 454
Added edge: Region 455 <-> Region 465
Added edge: Region 456 <-> Region 467
Added edge: Region 457 <-> Region 467
Added edge: Region 445 <-> Region 468
Added edge: Region 433 <-> Region 469
Added edge: Region 437 <-> Region 470
Added edge: Region 439 <-> Region 470
Added edge: Region 461 <-> Region 426
Added edge: Region 461 <-> Region 471
Added edge: Region 428 <-> Region 471
Added edge: Region 430 <-> Region 472
Added edge: Region 449 <-> Region 472
Added edge: Region 462 <-> Region 449
Added edge: Region 462 <-> Region 473
Added edge: Region 420 <-> Region 473
Added edge: Region 454 <-> Region 464
Added edge: Region 468 <-> Region 460
Added edge: Region 448 <-> Region 475
Added edge: Region 469 <-> Region 475
Added edge: Region 469 <-> Region 476
Added edge: Region 434 <-> Region 476
Added edge: Region 471 <-> Region 426
Added edge: Region 471 <-> Region 477
Added edge: Region 428 <-> Region 477
Added edge: Region 473 <-> Region 449
Added edge: Region 465 <-> Region 454
Added edge: Region 440 <-> Region 478
Added edge: Region 466 <-> Region 479
Added edge: Region 474 <-> Region 481
Added edge: Region 468 <-> Region 481
Added edge: Region 460 <-> Region 458
Added edge: Region 475 <-> Region 476
Added edge: Region 477 <-> Region 426
Added edge: Region 477 <-> Region 482
Added edge: Region 428 <-> Region 482
Added edge: Region 440 <-> Region 483
Added edge: Region 441 <-> Region 483
Added edge: Region 466 <-> Region 484
Added edge: Region 480 <-> Region 479
Added edge: Region 481 <-> Region 485
Added edge: Region 476 <-> Region 486
Added edge: Region 435 <-> Region 486
Added edge: Region 425 <-> Region 487
Added edge: Region 482 <-> Region 426
Added edge: Region 482 <-> Region 488
Added edge: Region 428 <-> Region 488
Added edge: Region 421 <-> Region 489
Added edge: Region 478 <-> Region 490
Added edge: Region 440 <-> Region 490
Added edge: Region 484 <-> Region 479
Added edge: Region 485 <-> Region 491
Added edge: Region 476 <-> Region 492
Added edge: Region 436 <-> Region 493
Added edge: Region 470 <-> Region 493
Added edge: Region 470 <-> Region 494
Added edge: Region 487 <-> Region 494
Added edge: Region 487 <-> Region 495
Added edge: Region 426 <-> Region 495
Added edge: Region 488 <-> Region 426
Added edge: Region 488 <-> Region 496
Added edge: Region 428 <-> Region 496
Added edge: Region 491 <-> Region 479
Added edge: Region 447 <-> Region 492
Added edge: Region 494 <-> Region 495
Added edge: Region 496 <-> Region 426
Added edge: Region 496 <-> Region 498
Added edge: Region 428 <-> Region 498
Added edge: Region 497 <-> Region 479
Added edge: Region 485 <-> Region 500
Added edge: Region 498 <-> Region 426
Added edge: Region 498 <-> Region 501
Added edge: Region 428 <-> Region 501
Added edge: Region 489 <-> Region 502
Added edge: Region 458 <-> Region 505
Added edge: Region 492 <-> Region 506
Added edge: Region 486 <-> Region 506
Added edge: Region 470 <-> Region 495
Added edge: Region 501 <-> Region 426
Added edge: Region 501 <-> Region 507
Added edge: Region 428 <-> Region 507
Added edge: Region 503 <-> Region 508
Added edge: Region 503 <-> Region 509
Added edge: Region 493 <-> Region 510
Added edge: Region 507 <-> Region 426
Added edge: Region 428 <-> Region 511
Added edge: Region 429 <-> Region 511
Added edge: Region 464 <-> Region 512
Added edge: Region 508 <-> Region 513
Added edge: Region 508 <-> Region 509
Added edge: Region 504 <-> Region 514
Added edge: Region 497 <-> Region 514
Added edge: Region 505 <-> Region 515
Added edge: Region 447 <-> Region 516
Added edge: Region 486 <-> Region 517
Added edge: Region 511 <-> Region 507
Added edge: Region 429 <-> Region 518
Added edge: Region 464 <-> Region 519
Added edge: Region 512 <-> Region 519
Added edge: Region 512 <-> Region 513
Added edge: Region 513 <-> Region 509
Added edge: Region 500 <-> Region 515
Added edge: Region 447 <-> Region 520
Added edge: Region 516 <-> Region 520
Added edge: Region 516 <-> Region 492
Added edge: Region 510 <-> Region 517
Added edge: Region 470 <-> Region 521
Added edge: Region 518 <-> Region 472
Added edge: Region 519 <-> Region 513
Added edge: Region 509 <-> Region 523
Added edge: Region 514 <-> Region 524
Added edge: Region 514 <-> Region 525
Added edge: Region 520 <-> Region 492
Added edge: Region 506 <-> Region 526
Added edge: Region 517 <-> Region 526
Added edge: Region 521 <-> Region 495
Added edge: Region 519 <-> Region 522
Added edge: Region 524 <-> Region 523
Added edge: Region 524 <-> Region 528
Added edge: Region 525 <-> Region 528
Added edge: Region 458 <-> Region 529
Added edge: Region 517 <-> Region 530
Added edge: Region 510 <-> Region 530
Added edge: Region 470 <-> Region 531
Added edge: Region 530 <-> Region 526
Added edge: Region 531 <-> Region 510
Added edge: Region 531 <-> Region 533
Added edge: Region 521 <-> Region 533
Added edge: Region 502 <-> Region 449
Added edge: Region 489 <-> Region 527
Added edge: Region 463 <-> Region 535
Added edge: Region 522 <-> Region 536
Added edge: Region 479 <-> Region 532
Added edge: Region 505 <-> Region 537
Added edge: Region 495 <-> Region 538
Added edge: Region 426 <-> Region 539
Added edge: Region 534 <-> Region 539
Added edge: Region 518 <-> Region 540
Added edge: Region 479 <-> Region 541
Added edge: Region 537 <-> Region 543
Added edge: Region 492 <-> Region 543
Added edge: Region 510 <-> Region 544
Added edge: Region 533 <-> Region 544
Added edge: Region 535 <-> Region 545
Added edge: Region 528 <-> Region 523
Added edge: Region 541 <-> Region 546
Added edge: Region 492 <-> Region 547
Added edge: Region 510 <-> Region 548
Added edge: Region 533 <-> Region 538
Added edge: Region 472 <-> Region 549
Added edge: Region 479 <-> Region 551
Added edge: Region 515 <-> Region 552
Added edge: Region 515 <-> Region 553
Added edge: Region 537 <-> Region 553
Added edge: Region 547 <-> Region 543
Added edge: Region 547 <-> Region 554
Added edge: Region 492 <-> Region 554
Added edge: Region 548 <-> Region 526
Added edge: Region 502 <-> Region 555
Added edge: Region 536 <-> Region 556
Added edge: Region 551 <-> Region 557
Added edge: Region 479 <-> Region 557
Added edge: Region 554 <-> Region 543
Added edge: Region 539 <-> Region 558
Added edge: Region 539 <-> Region 559
Added edge: Region 449 <-> Region 560
Added edge: Region 555 <-> Region 550
Added edge: Region 492 <-> Region 526
Added edge: Region 548 <-> Region 561
Added edge: Region 544 <-> Region 561
Added edge: Region 495 <-> Region 558
Added edge: Region 472 <-> Region 562
Added edge: Region 523 <-> Region 563
Added edge: Region 546 <-> Region 563
Added edge: Region 553 <-> Region 564
Added edge: Region 543 <-> Region 564
Added edge: Region 554 <-> Region 565
Added edge: Region 538 <-> Region 566
Added edge: Region 549 <-> Region 567
Added edge: Region 545 <-> Region 568
Added edge: Region 532 <-> Region 569
Added edge: Region 552 <-> Region 569
Added edge: Region 552 <-> Region 570
Added edge: Region 554 <-> Region 571
Added edge: Region 565 <-> Region 571
Added edge: Region 565 <-> Region 572
Added edge: Region 526 <-> Region 572
Added edge: Region 566 <-> Region 573
Added edge: Region 567 <-> Region 559
Added edge: Region 567 <-> Region 574
Added edge: Region 549 <-> Region 574
Added edge: Region 543 <-> Region 575
Added edge: Region 558 <-> Region 576
Added edge: Region 559 <-> Region 577
Added edge: Region 549 <-> Region 578
Added edge: Region 560 <-> Region 562
Added edge: Region 569 <-> Region 579
Added edge: Region 571 <-> Region 572
Added edge: Region 526 <-> Region 580
Added edge: Region 561 <-> Region 573
Added edge: Region 538 <-> Region 581
Added edge: Region 538 <-> Region 576
Added edge: Region 578 <-> Region 582
Added edge: Region 562 <-> Region 578
Added edge: Region 553 <-> Region 570
Added edge: Region 571 <-> Region 575
Added edge: Region 561 <-> Region 580
Added edge: Region 581 <-> Region 573
Added edge: Region 577 <-> Region 583
Added edge: Region 557 <-> Region 585
Added edge: Region 532 <-> Region 585
Added edge: Region 570 <-> Region 579
Added edge: Region 564 <-> Region 587
Added edge: Region 575 <-> Region 587
Added edge: Region 575 <-> Region 588
Added edge: Region 576 <-> Region 586
Added edge: Region 583 <-> Region 589
Added edge: Region 509 <-> Region 590
Added edge: Region 557 <-> Region 546
Added edge: Region 557 <-> Region 591
Added edge: Region 585 <-> Region 591
Added edge: Region 585 <-> Region 592
Added edge: Region 570 <-> Region 593
Added edge: Region 572 <-> Region 588
Added edge: Region 586 <-> Region 589
Added edge: Region 582 <-> Region 594
Added edge: Region 550 <-> Region 595
Added edge: Region 591 <-> Region 592
Added edge: Region 564 <-> Region 593
Added edge: Region 562 <-> Region 597
Added edge: Region 592 <-> Region 599
Added edge: Region 579 <-> Region 599
Added edge: Region 598 <-> Region 597
Added edge: Region 595 <-> Region 602
Added edge: Region 590 <-> Region 603
Added edge: Region 523 <-> Region 603
Added edge: Region 579 <-> Region 604
Added edge: Region 593 <-> Region 605
Added edge: Region 587 <-> Region 605
Added edge: Region 581 <-> Region 606
Added edge: Region 586 <-> Region 607
Added edge: Region 589 <-> Region 608
Added edge: Region 597 <-> Region 601
Added edge: Region 546 <-> Region 610
Added edge: Region 579 <-> Region 612
Added edge: Region 604 <-> Region 612
Added edge: Region 581 <-> Region 613
Added edge: Region 606 <-> Region 613
Added edge: Region 606 <-> Region 607
Added edge: Region 586 <-> Region 614
Added edge: Region 609 <-> Region 608
Added edge: Region 601 <-> Region 615
Added edge: Region 597 <-> Region 615
Added edge: Region 584 <-> Region 616
Added edge: Region 546 <-> Region 617
Added edge: Region 610 <-> Region 617
Added edge: Region 610 <-> Region 611
Added edge: Region 612 <-> Region 618
Added edge: Region 573 <-> Region 619
Added edge: Region 607 <-> Region 620
Added edge: Region 596 <-> Region 602
Added edge: Region 599 <-> Region 621
Added edge: Region 618 <-> Region 621
Added edge: Region 587 <-> Region 622
Added edge: Region 588 <-> Region 622
Added edge: Region 572 <-> Region 623
Added edge: Region 580 <-> Region 623
Added edge: Region 580 <-> Region 624
Added edge: Region 619 <-> Region 625
Added edge: Region 614 <-> Region 620
Added edge: Region 614 <-> Region 608
Added edge: Region 563 <-> Region 628
Added edge: Region 563 <-> Region 629
Added edge: Region 617 <-> Region 611
Added edge: Region 618 <-> Region 630
Added edge: Region 605 <-> Region 630
Added edge: Region 626 <-> Region 625
Added edge: Region 626 <-> Region 620
Added edge: Region 616 <-> Region 632
Added edge: Region 603 <-> Region 628
Added edge: Region 617 <-> Region 629
Added edge: Region 630 <-> Region 621
Added edge: Region 580 <-> Region 635
Added edge: Region 631 <-> Region 637
Added edge: Region 631 <-> Region 638
Added edge: Region 632 <-> Region 640
Added edge: Region 603 <-> Region 641
Added edge: Region 628 <-> Region 642
Added edge: Region 629 <-> Region 642
Added edge: Region 611 <-> Region 643
Added edge: Region 634 <-> Region 621
Added edge: Region 572 <-> Region 644
Added edge: Region 635 <-> Region 645
Added edge: Region 635 <-> Region 646
Added edge: Region 625 <-> Region 636
Added edge: Region 608 <-> Region 647
Added edge: Region 637 <-> Region 609
Added edge: Region 637 <-> Region 648
Added edge: Region 638 <-> Region 648
Added edge: Region 602 <-> Region 650
Added edge: Region 633 <-> Region 641
Added edge: Region 611 <-> Region 652
Added edge: Region 643 <-> Region 652
Added edge: Region 621 <-> Region 653
Added edge: Region 572 <-> Region 654
Added edge: Region 644 <-> Region 654
Added edge: Region 644 <-> Region 645
Added edge: Region 645 <-> Region 655
Added edge: Region 625 <-> Region 656
Added edge: Region 620 <-> Region 647
Added edge: Region 648 <-> Region 609
Added edge: Region 648 <-> Region 657
Added edge: Region 602 <-> Region 658
Added edge: Region 653 <-> Region 659
Added edge: Region 622 <-> Region 660
Added edge: Region 654 <-> Region 645
Added edge: Region 646 <-> Region 655
Added edge: Region 646 <-> Region 636
Added edge: Region 620 <-> Region 656
Added edge: Region 657 <-> Region 609
Added edge: Region 657 <-> Region 662
Added edge: Region 649 <-> Region 663
Added edge: Region 621 <-> Region 664
Added edge: Region 605 <-> Region 665
Added edge: Region 609 <-> Region 667
Added edge: Region 662 <-> Region 667
Added edge: Region 658 <-> Region 650
Added edge: Region 642 <-> Region 669
Added edge: Region 621 <-> Region 671
Added edge: Region 666 <-> Region 665
Added edge: Region 661 <-> Region 660
Added edge: Region 654 <-> Region 661
Added edge: Region 640 <-> Region 675
Added edge: Region 641 <-> Region 676
Added edge: Region 665 <-> Region 672
Added edge: Region 666 <-> Region 660
Added edge: Region 654 <-> Region 681
Added edge: Region 636 <-> Region 682
Added edge: Region 667 <-> Region 683
Added edge: Region 663 <-> Region 683
Added edge: Region 677 <-> Region 678
Added edge: Region 679 <-> Region 689
Added edge: Region 672 <-> Region 671
Added edge: Region 681 <-> Region 655
Added edge: Region 685 <-> Region 684
Added edge: Region 685 <-> Region 690
Added edge: Region 686 <-> Region 693
Added edge: Region 687 <-> Region 688
Added edge: Region 677 <-> Region 688
Added edge: Region 678 <-> Region 689
Added edge: Region 680 <-> Region 694
Added edge: Region 671 <-> Region 694
Added edge: Region 681 <-> Region 695
Added edge: Region 655 <-> Region 682
Added edge: Region 690 <-> Region 684
Added edge: Region 690 <-> Region 696
Added edge: Region 691 <-> Region 692
Added edge: Region 687 <-> Region 693
Added edge: Region 665 <-> Region 698
Added edge: Region 660 <-> Region 698
Added edge: Region 660 <-> Region 699
Added edge: Region 695 <-> Region 699
Added edge: Region 636 <-> Region 700
Added edge: Region 656 <-> Region 700
Added edge: Region 696 <-> Region 684
Added edge: Region 658 <-> Region 701
Added edge: Region 692 <-> Region 704
Added edge: Region 688 <-> Region 705
Added edge: Region 682 <-> Region 706
Added edge: Region 700 <-> Region 706
Added edge: Region 684 <-> Region 707
Added edge: Region 704 <-> Region 709
Added edge: Region 704 <-> Region 710
Added edge: Region 693 <-> Region 710
Added edge: Region 671 <-> Region 711
Added edge: Region 698 <-> Region 712
Added edge: Region 695 <-> Region 713
Added edge: Region 647 <-> Region 714
Added edge: Region 667 <-> Region 715
Added edge: Region 707 <-> Region 683
Added edge: Region 701 <-> Region 708
Added edge: Region 697 <-> Region 717
Added edge: Region 703 <-> Region 718
Added edge: Region 709 <-> Region 718
Added edge: Region 678 <-> Region 705
Added edge: Region 711 <-> Region 689
Added edge: Region 671 <-> Region 719
Added edge: Region 712 <-> Region 720
Added edge: Region 655 <-> Region 713
Added edge: Region 708 <-> Region 722
Added edge: Region 717 <-> Region 723
Added edge: Region 705 <-> Region 724
Added edge: Region 719 <-> Region 711
Added edge: Region 719 <-> Region 725
Added edge: Region 671 <-> Region 725
Added edge: Region 721 <-> Region 720
Added edge: Region 715 <-> Region 714
Added edge: Region 722 <-> Region 727
Added edge: Region 722 <-> Region 728
Added edge: Region 708 <-> Region 728
Added edge: Region 723 <-> Region 729
Added edge: Region 718 <-> Region 730
Added edge: Region 710 <-> Region 730
Added edge: Region 710 <-> Region 731
Added edge: Region 693 <-> Region 724
Added edge: Region 725 <-> Region 732
Added edge: Region 699 <-> Region 733
Added edge: Region 713 <-> Region 733
Added edge: Region 656 <-> Region 734
Added edge: Region 715 <-> Region 735
Added edge: Region 683 <-> Region 735
Added edge: Region 707 <-> Region 736
Added edge: Region 727 <-> Region 736
Added edge: Region 718 <-> Region 729
Added edge: Region 731 <-> Region 730
Added edge: Region 726 <-> Region 720
Added edge: Region 729 <-> Region 738
Added edge: Region 724 <-> Region 739
Added edge: Region 724 <-> Region 740
Added edge: Region 689 <-> Region 740
Added edge: Region 689 <-> Region 741
Added edge: Region 699 <-> Region 720
Added edge: Region 734 <-> Region 706
Added edge: Region 728 <-> Region 736
Added edge: Region 730 <-> Region 743
Added edge: Region 739 <-> Region 745
Added edge: Region 724 <-> Region 745
Added edge: Region 737 <-> Region 741
Added edge: Region 732 <-> Region 737
Added edge: Region 720 <-> Region 746
Added edge: Region 736 <-> Region 747
Added edge: Region 718 <-> Region 748
Added edge: Region 741 <-> Region 750
Added edge: Region 732 <-> Region 751
Added edge: Region 735 <-> Region 752
Added edge: Region 730 <-> Region 753
Added edge: Region 743 <-> Region 753
Added edge: Region 744 <-> Region 754
Added edge: Region 699 <-> Region 755
Added edge: Region 738 <-> Region 757
Added edge: Region 753 <-> Region 758
Added edge: Region 746 <-> Region 751
Added edge: Region 755 <-> Region 720
Added edge: Region 755 <-> Region 759
Added edge: Region 699 <-> Region 759
Added edge: Region 655 <-> Region 706
Added edge: Region 742 <-> Region 760
Added edge: Region 758 <-> Region 761
Added edge: Region 758 <-> Region 754
Added edge: Region 761 <-> Region 765
Added edge: Region 763 <-> Region 762
Added edge: Region 763 <-> Region 766
Added edge: Region 737 <-> Region 767
Added edge: Region 751 <-> Region 767
Added edge: Region 757 <-> Region 768
Added edge: Region 764 <-> Region 765
Added edge: Region 766 <-> Region 762
Added edge: Region 750 <-> Region 770
Added edge: Region 759 <-> Region 771
Added edge: Region 733 <-> Region 771
Added edge: Region 655 <-> Region 772
Added edge: Region 714 <-> Region 773
Added edge: Region 769 <-> Region 774
Added edge: Region 754 <-> Region 775
Added edge: Region 754 <-> Region 762
Added edge: Region 771 <-> Region 776
Added edge: Region 733 <-> Region 776
Added edge: Region 655 <-> Region 777
Added edge: Region 772 <-> Region 777
Added edge: Region 772 <-> Region 706
Added edge: Region 647 <-> Region 778
Added edge: Region 773 <-> Region 779
Added edge: Region 752 <-> Region 779
Added edge: Region 747 <-> Region 780
Added edge: Region 765 <-> Region 775
Added edge: Region 776 <-> Region 783
Added edge: Region 734 <-> Region 784
Added edge: Region 714 <-> Region 779
Added edge: Region 770 <-> Region 785
Added edge: Region 750 <-> Region 786
Added edge: Region 767 <-> Region 782
Added edge: Region 746 <-> Region 787
Added edge: Region 783 <-> Region 787
Added edge: Region 778 <-> Region 784
Added edge: Region 765 <-> Region 789
Added edge: Region 762 <-> Region 790
Added edge: Region 786 <-> Region 770
Added edge: Region 767 <-> Region 791
Added edge: Region 733 <-> Region 783
Added edge: Region 777 <-> Region 706
Added edge: Region 714 <-> Region 792
Added edge: Region 747 <-> Region 788
Added edge: Region 768 <-> Region 793
Added edge: Region 774 <-> Region 794
Added edge: Region 785 <-> Region 762
Added edge: Region 782 <-> Region 795
Added edge: Region 791 <-> Region 796
Added edge: Region 767 <-> Region 796
Added edge: Region 746 <-> Region 797
Added edge: Region 714 <-> Region 798
Added edge: Region 714 <-> Region 799
Added edge: Region 792 <-> Region 799
Added edge: Region 792 <-> Region 779
Added edge: Region 781 <-> Region 800
Added edge: Region 768 <-> Region 801
Added edge: Region 794 <-> Region 789
Added edge: Region 770 <-> Region 802
Added edge: Region 795 <-> Region 802
Added edge: Region 795 <-> Region 803
Added edge: Region 796 <-> Region 804
Added edge: Region 778 <-> Region 798
Added edge: Region 775 <-> Region 790
Added edge: Region 803 <-> Region 802
Added edge: Region 804 <-> Region 806
Added edge: Region 733 <-> Region 807
Added edge: Region 777 <-> Region 808
Added edge: Region 779 <-> Region 809
Added edge: Region 806 <-> Region 810
Added edge: Region 807 <-> Region 783
Added edge: Region 733 <-> Region 811
Added edge: Region 808 <-> Region 811
Added edge: Region 779 <-> Region 812
Added edge: Region 809 <-> Region 812
Added edge: Region 809 <-> Region 813
Added edge: Region 789 <-> Region 814
Added edge: Region 775 <-> Region 814
Added edge: Region 785 <-> Region 815
Added edge: Region 785 <-> Region 816
Added edge: Region 802 <-> Region 816
Added edge: Region 784 <-> Region 817
Added edge: Region 714 <-> Region 818
Added edge: Region 799 <-> Region 818
Added edge: Region 799 <-> Region 819
Added edge: Region 812 <-> Region 813
Added edge: Region 805 <-> Region 813
Added edge: Region 816 <-> Region 821
Added edge: Region 816 <-> Region 822
Added edge: Region 802 <-> Region 822
Added edge: Region 798 <-> Region 817
Added edge: Region 818 <-> Region 819
Added edge: Region 822 <-> Region 821
Added edge: Region 810 <-> Region 823
Added edge: Region 815 <-> Region 821
Added edge: Region 823 <-> Region 802
Added edge: Region 823 <-> Region 825
Added edge: Region 810 <-> Region 825
Added edge: Region 810 <-> Region 826
Added edge: Region 807 <-> Region 827
Added edge: Region 811 <-> Region 827
Added edge: Region 808 <-> Region 828
Added edge: Region 788 <-> Region 829
Added edge: Region 815 <-> Region 790
Added edge: Region 825 <-> Region 831
Added edge: Region 826 <-> Region 831
Added edge: Region 824 <-> Region 832
Added edge: Region 787 <-> Region 824
Added edge: Region 828 <-> Region 811
Added edge: Region 798 <-> Region 833
Added edge: Region 819 <-> Region 834
Added edge: Region 802 <-> Region 821
Added edge: Region 832 <-> Region 831
Added edge: Region 783 <-> Region 835
Added edge: Region 827 <-> Region 835
Added edge: Region 706 <-> Region 836
Added edge: Region 833 <-> Region 837
Added edge: Region 819 <-> Region 837
Added edge: Region 819 <-> Region 838
Added edge: Region 834 <-> Region 838
Added edge: Region 834 <-> Region 813
Added edge: Region 836 <-> Region 839
Added edge: Region 706 <-> Region 839
Added edge: Region 817 <-> Region 840
Added edge: Region 801 <-> Region 841
Added edge: Region 790 <-> Region 842
Added edge: Region 790 <-> Region 843
Added edge: Region 821 <-> Region 844
Added edge: Region 831 <-> Region 845
Added edge: Region 817 <-> Region 848
Added edge: Region 837 <-> Region 849
Added edge: Region 838 <-> Region 849
Added edge: Region 838 <-> Region 813
Added edge: Region 821 <-> Region 843
Added edge: Region 845 <-> Region 844
Added edge: Region 831 <-> Region 851
Added edge: Region 787 <-> Region 852
Added edge: Region 833 <-> Region 848
Added edge: Region 820 <-> Region 853
Added edge: Region 801 <-> Region 853
Added edge: Region 789 <-> Region 841
Added edge: Region 814 <-> Region 842
Added edge: Region 851 <-> Region 844
Added edge: Region 851 <-> Region 854
Added edge: Region 846 <-> Region 854
Added edge: Region 824 <-> Region 855
Added edge: Region 852 <-> Region 824
Added edge: Region 827 <-> Region 847
Added edge: Region 706 <-> Region 857
Added edge: Region 853 <-> Region 858
Added edge: Region 856 <-> Region 824
Added edge: Region 706 <-> Region 860
Added edge: Region 857 <-> Region 860
Added edge: Region 857 <-> Region 861
Added edge: Region 840 <-> Region 861
Added edge: Region 840 <-> Region 862
Added edge: Region 849 <-> Region 863
Added edge: Region 813 <-> Region 863
Added edge: Region 854 <-> Region 864
Added edge: Region 855 <-> Region 865
Added edge: Region 824 <-> Region 865
Added edge: Region 835 <-> Region 866
Added edge: Region 706 <-> Region 867
Added edge: Region 861 <-> Region 862
Added edge: Region 848 <-> Region 862
Added edge: Region 864 <-> Region 844
Added edge: Region 864 <-> Region 868
Added edge: Region 865 <-> Region 869
Added edge: Region 824 <-> Region 870
Added edge: Region 824 <-> Region 871
Added edge: Region 841 <-> Region 872
Added edge: Region 859 <-> Region 868
Added edge: Region 869 <-> Region 859
Added edge: Region 869 <-> Region 873
Added edge: Region 870 <-> Region 873
Added edge: Region 866 <-> Region 871
Added edge: Region 868 <-> Region 844
Added edge: Region 866 <-> Region 876
Added edge: Region 867 <-> Region 847
Added edge: Region 874 <-> Region 862
Added edge: Region 848 <-> Region 877
Added edge: Region 849 <-> Region 877
Added edge: Region 872 <-> Region 878
Added edge: Region 859 <-> Region 879
Added edge: Region 859 <-> Region 880
Added edge: Region 873 <-> Region 880
Added edge: Region 873 <-> Region 881
Added edge: Region 876 <-> Region 871
Added edge: Region 876 <-> Region 882
Added edge: Region 866 <-> Region 882
Added edge: Region 847 <-> Region 883
Added edge: Region 706 <-> Region 884
Added edge: Region 842 <-> Region 885
Added edge: Region 843 <-> Region 885
Added edge: Region 880 <-> Region 879
Added edge: Region 835 <-> Region 883
Added edge: Region 884 <-> Region 874
Added edge: Region 814 <-> Region 886
Added edge: Region 843 <-> Region 887
Added edge: Region 871 <-> Region 881
Added edge: Region 871 <-> Region 888
Added edge: Region 882 <-> Region 888
Added edge: Region 867 <-> Region 889
Added edge: Region 813 <-> Region 890
Added edge: Region 829 <-> Region 891
Added edge: Region 879 <-> Region 892
Added edge: Region 883 <-> Region 893
Added edge: Region 883 <-> Region 894
Added edge: Region 847 <-> Region 894
Added edge: Region 884 <-> Region 889
Added edge: Region 862 <-> Region 895
Added edge: Region 881 <-> Region 892
Added edge: Region 882 <-> Region 896
Added edge: Region 866 <-> Region 893
Added edge: Region 894 <-> Region 893
Added edge: Region 847 <-> Region 897
Added edge: Region 862 <-> Region 898
Added edge: Region 895 <-> Region 898
Added edge: Region 890 <-> Region 899
Added edge: Region 844 <-> Region 887
Added edge: Region 896 <-> Region 881
Added edge: Region 882 <-> Region 901
Added edge: Region 889 <-> Region 902
Added edge: Region 874 <-> Region 902
Added edge: Region 898 <-> Region 903
Added edge: Region 877 <-> Region 903
Added edge: Region 863 <-> Region 899
Added edge: Region 885 <-> Region 904
Added edge: Region 887 <-> Region 904
Added edge: Region 881 <-> Region 905
Added edge: Region 901 <-> Region 881
Added edge: Region 901 <-> Region 906
Added edge: Region 882 <-> Region 906
Added edge: Region 893 <-> Region 907
Added edge: Region 886 <-> Region 878
Added edge: Region 886 <-> Region 911
Added edge: Region 842 <-> Region 911
Added edge: Region 844 <-> Region 912
Added edge: Region 905 <-> Region 892
Added edge: Region 905 <-> Region 913
Added edge: Region 881 <-> Region 913
Added edge: Region 906 <-> Region 914
Added edge: Region 882 <-> Region 914
Added edge: Region 897 <-> Region 915
Added edge: Region 878 <-> Region 916
Added edge: Region 914 <-> Region 917
Added edge: Region 915 <-> Region 907
Added edge: Region 915 <-> Region 919
Added edge: Region 897 <-> Region 919
Added edge: Region 829 <-> Region 920
Added edge: Region 909 <-> Region 910
Added edge: Region 913 <-> Region 892
Added edge: Region 918 <-> Region 921
Added edge: Region 918 <-> Region 922
Added edge: Region 907 <-> Region 922
Added edge: Region 919 <-> Region 907
Added edge: Region 897 <-> Region 923
Added edge: Region 881 <-> Region 925
Added edge: Region 922 <-> Region 921
Added edge: Region 922 <-> Region 927
Added edge: Region 907 <-> Region 927
Added edge: Region 923 <-> Region 919
Added edge: Region 902 <-> Region 928
Added edge: Region 924 <-> Region 929
Added edge: Region 926 <-> Region 930
Added edge: Region 921 <-> Region 930
Added edge: Region 927 <-> Region 921
Added edge: Region 907 <-> Region 931
Added edge: Region 919 <-> Region 932
Added edge: Region 928 <-> Region 932
Added edge: Region 898 <-> Region 933
Added edge: Region 911 <-> Region 935
Added edge: Region 885 <-> Region 935
Added edge: Region 913 <-> Region 936
Added edge: Region 926 <-> Region 925
Added edge: Region 931 <-> Region 921
Added edge: Region 902 <-> Region 937
Added edge: Region 929 <-> Region 934
Added edge: Region 844 <-> Region 904
Added edge: Region 892 <-> Region 939
Added edge: Region 925 <-> Region 936
Added edge: Region 907 <-> Region 940
Added edge: Region 937 <-> Region 932
Added edge: Region 937 <-> Region 941
Added edge: Region 902 <-> Region 942
Added edge: Region 933 <-> Region 943
Added edge: Region 903 <-> Region 943
Added edge: Region 863 <-> Region 944
Added edge: Region 886 <-> Region 945
Added edge: Region 936 <-> Region 939
Added edge: Region 932 <-> Region 940
Added edge: Region 902 <-> Region 946
Added edge: Region 942 <-> Region 933
Added edge: Region 934 <-> Region 938
Added edge: Region 929 <-> Region 947
Added edge: Region 935 <-> Region 949
Added edge: Region 904 <-> Region 949
Added edge: Region 844 <-> Region 950
Added edge: Region 912 <-> Region 951
Added edge: Region 941 <-> Region 932
Added edge: Region 944 <-> Region 953
Added edge: Region 911 <-> Region 954
Added edge: Region 921 <-> Region 952
Added edge: Region 940 <-> Region 952
Added edge: Region 946 <-> Region 955
Added edge: Region 942 <-> Region 955
Added edge: Region 877 <-> Region 956
Added edge: Region 953 <-> Region 938
Added edge: Region 934 <-> Region 957
Added edge: Region 947 <-> Region 957
Added edge: Region 950 <-> Region 904
Added edge: Region 950 <-> Region 958
Added edge: Region 912 <-> Region 958
Added edge: Region 939 <-> Region 959
Added edge: Region 930 <-> Region 960
Added edge: Region 940 <-> Region 961
Added edge: Region 932 <-> Region 961
Added edge: Region 955 <-> Region 962
Added edge: Region 903 <-> Region 963
Added edge: Region 945 <-> Region 954
Added edge: Region 930 <-> Region 964
Added edge: Region 962 <-> Region 965
Added edge: Region 955 <-> Region 966
Added edge: Region 933 <-> Region 966
Added edge: Region 916 <-> Region 910
Added edge: Region 904 <-> Region 967
Added edge: Region 958 <-> Region 968
Added edge: Region 959 <-> Region 951
Added edge: Region 959 <-> Region 969
Added edge: Region 939 <-> Region 969
Added edge: Region 960 <-> Region 970
Added edge: Region 960 <-> Region 971
Added edge: Region 930 <-> Region 971
Added edge: Region 952 <-> Region 964
Added edge: Region 943 <-> Region 974
Added edge: Region 963 <-> Region 974
Added edge: Region 956 <-> Region 963
Added edge: Region 967 <-> Region 975
Added edge: Region 971 <-> Region 970
Added edge: Region 952 <-> Region 972
Added edge: Region 954 <-> Region 977
Added edge: Region 968 <-> Region 975
Added edge: Region 951 <-> Region 968
Added edge: Region 936 <-> Region 970
Added edge: Region 930 <-> Region 970
Added edge: Region 974 <-> Region 978
Added edge: Region 956 <-> Region 979
Added edge: Region 977 <-> Region 980
Added edge: Region 949 <-> Region 980
Added edge: Region 964 <-> Region 981
Added edge: Region 972 <-> Region 981
Added edge: Region 953 <-> Region 976
Added edge: Region 949 <-> Region 983
Added edge: Region 964 <-> Region 984
Added edge: Region 981 <-> Region 984
Added edge: Region 972 <-> Region 985
Added edge: Region 982 <-> Region 986
Added edge: Region 963 <-> Region 987
Added edge: Region 979 <-> Region 976
Added edge: Region 916 <-> Region 988
Added edge: Region 983 <-> Region 989
Added edge: Region 975 <-> Region 989
Added edge: Region 969 <-> Region 951
Added edge: Region 964 <-> Region 990
Added edge: Region 984 <-> Region 991
Added edge: Region 974 <-> Region 993
Added edge: Region 987 <-> Region 993
Added edge: Region 987 <-> Region 994
Added edge: Region 979 <-> Region 994
Added edge: Region 970 <-> Region 995
Added edge: Region 964 <-> Region 991
Added edge: Region 985 <-> Region 991
Added edge: Region 985 <-> Region 996
Added edge: Region 978 <-> Region 997
Added edge: Region 994 <-> Region 993
Added edge: Region 954 <-> Region 980
Added edge: Region 980 <-> Region 998
Added edge: Region 995 <-> Region 999
Added edge: Region 979 <-> Region 993
Added edge: Region 991 <-> Region 1000
Added edge: Region 996 <-> Region 1002
Added edge: Region 992 <-> Region 1003
Added edge: Region 957 <-> Region 1005
Added edge: Region 957 <-> Region 1006
Added edge: Region 983 <-> Region 998
Added edge: Region 939 <-> Region 1008
Added edge: Region 1001 <-> Region 999
Added edge: Region 999 <-> Region 1009
Added edge: Region 1003 <-> Region 1010
Added edge: Region 978 <-> Region 1004
Added edge: Region 993 <-> Region 1004
Added edge: Region 1005 <-> Region 1006
Added edge: Region 998 <-> Region 1013
Added edge: Region 1000 <-> Region 1009
Added edge: Region 991 <-> Region 1015
Added edge: Region 996 <-> Region 1015
Added edge: Region 1011 <-> Region 993
Added edge: Region 1011 <-> Region 1016
Added edge: Region 976 <-> Region 1016
Added edge: Region 938 <-> Region 1017
Added edge: Region 1012 <-> Region 1018
Added edge: Region 999 <-> Region 1022
Added edge: Region 1010 <-> Region 1023
Added edge: Region 997 <-> Region 1024
Added edge: Region 1017 <-> Region 1025
Added edge: Region 1006 <-> Region 1025
Added edge: Region 1007 <-> Region 1026
Added edge: Region 989 <-> Region 1027
Added edge: Region 968 <-> Region 1028
Added edge: Region 1021 <-> Region 1028
Added edge: Region 1008 <-> Region 1014
Added edge: Region 1022 <-> Region 1029
Added edge: Region 1015 <-> Region 1030
Added edge: Region 1002 <-> Region 1030
Added edge: Region 1023 <-> Region 1002
Added edge: Region 1023 <-> Region 1031
Added edge: Region 1010 <-> Region 1031
Added edge: Region 1004 <-> Region 1024
Added edge: Region 1019 <-> Region 1032
Added edge: Region 1019 <-> Region 1020
Added edge: Region 1013 <-> Region 1020
Added edge: Region 1013 <-> Region 1033
Added edge: Region 1014 <-> Region 1021
Added edge: Region 1029 <-> Region 1034
Added edge: Region 1009 <-> Region 1034
Added edge: Region 1002 <-> Region 1035
Added edge: Region 1031 <-> Region 1035
Added edge: Region 1010 <-> Region 1036
Added edge: Region 1024 <-> Region 1037
Added edge: Region 993 <-> Region 1038
Added edge: Region 1016 <-> Region 1038
Added edge: Region 1018 <-> Region 1039
Added edge: Region 1027 <-> Region 1033
Added edge: Region 1027 <-> Region 1040
Added edge: Region 1028 <-> Region 1041
Added edge: Region 1028 <-> Region 1042
Added edge: Region 1021 <-> Region 1042
Added edge: Region 1039 <-> Region 1046
Added edge: Region 1039 <-> Region 1047
Added edge: Region 1013 <-> Region 1048
Added edge: Region 1033 <-> Region 1048
Added edge: Region 1042 <-> Region 1041
Added edge: Region 1030 <-> Region 1050
Added edge: Region 1036 <-> Region 1043
Added edge: Region 1036 <-> Region 1051
Added edge: Region 1037 <-> Region 1051
Added edge: Region 1016 <-> Region 1052
Added edge: Region 1045 <-> Region 1044
Added edge: Region 1047 <-> Region 1053
Added edge: Region 1048 <-> Region 1054
Added edge: Region 1041 <-> Region 1055
Added edge: Region 1014 <-> Region 1057
Added edge: Region 1000 <-> Region 1058
Added edge: Region 1015 <-> Region 1058
Added edge: Region 1051 <-> Region 1043
Added edge: Region 1051 <-> Region 1059
Added edge: Region 1037 <-> Region 1059
Added edge: Region 1052 <-> Region 1044
Added edge: Region 1026 <-> Region 1061
Added edge: Region 1013 <-> Region 1062
Added edge: Region 1056 <-> Region 1041
Added edge: Region 1057 <-> Region 1056
Added edge: Region 1034 <-> Region 1065
Added edge: Region 1059 <-> Region 1043
Added edge: Region 1059 <-> Region 1066
Added edge: Region 1037 <-> Region 1066
Added edge: Region 1004 <-> Region 1067
Added edge: Region 1060 <-> Region 1068
Added edge: Region 1052 <-> Region 1060
Added edge: Region 1020 <-> Region 1069
Added edge: Region 1062 <-> Region 1070
Added edge: Region 1062 <-> Region 1054
Added edge: Region 1040 <-> Region 1054
Added edge: Region 1055 <-> Region 1040
Added edge: Region 1064 <-> Region 1063
Added edge: Region 1064 <-> Region 1065
Added edge: Region 1009 <-> Region 1071
Added edge: Region 1015 <-> Region 1072
Added edge: Region 1043 <-> Region 1073
Added edge: Region 1043 <-> Region 1074
Added edge: Region 1066 <-> Region 1074
Added edge: Region 1067 <-> Region 1068
Added edge: Region 1017 <-> Region 1075
Added edge: Region 1070 <-> Region 1054
Added edge: Region 1071 <-> Region 1065
Added edge: Region 1058 <-> Region 1078

Graph construction complete:
  Total edges added: 1536
  Graph vertices: 1079

Adjacency matrix:
      1  2  3  4  5  6  7  8  9 10 11 12 13 14 15 16 17 18 19 20 21 22 23 24 25 26 27 28 29 30 31 32 33 34 35 36 37 38 39 40 41 42 43 44 45 46 47 48 49 50 51 52 53 54 55 56 57 58 59 60 61 62 63 64 65 66 67 68 69 70 71 72 73 74 75 76 77 78 79 80 81 82 83 84 85 86 87 88 89 90 91 92 93 94 95 96 97 98 99 100 101 102 103 104 105 106 107 108 109 110 111 112 113 114 115 116 117 118 119 120 121 122 123 124 125 126 127 128 129 130 131 132 133 134 135 136 137 138 139 140 141 142 143 144 145 146 147 148 149 150 151 152 153 154 155 156 157 158 159 160 161 162 163 164 165 166 167 168 169 170 171 172 173 174 175 176 177 178 179 180 181 182 183 184 185 186 187 188 189 190 191 192 193 194 195 196 197 198 199 200 201 202 203 204 205 206 207 208 209 210 211 212 213 214 215 216 217 218 219 220 221 222 223 224 225 226 227 228 229 230 231 232 233 234 235 236 237 238 239 240 241 242 243 244 245 246 247 248 249 250 251 252 253 254 255 256 257 258 259 260 261 262 263 264 265 266 267 268 269 270 271 272 273 274 275 276 277 278 279 280 281 282 283 284 285 286 287 288 289 290 291 292 293 294 295 296 297 298 299 300 301 302 303 304 305 306 307 308 309 310 311 312 313 314 315 316 317 318 319 320 321 322 323 324 325 326 327 328 329 330 331 332 333 334 335 336 337 338 339 340 341 342 343 344 345 346 347 348 349 350 351 352 353 354 355 356 357 358 359 360 361 362 363 364 365 366 367 368 369 370 371 372 373 374 375 376 377 378 379 380 381 382 383 384 385 386 387 388 389 390 391 392 393 394 395 396 397 398 399 400 401 402 403 404 405 406 407 408 409 410 411 412 413 414 415 416 417 418 419 420 421 422 423 424 425 426 427 428 429 430 431 432 433 434 435 436 437 438 439 440 441 442 443 444 445 446 447 448 449 450 451 452 453 454 455 456 457 458 459 460 461 462 463 464 465 466 467 468 469 470 471 472 473 474 475 476 477 478 479 480 481 482 483 484 485 486 487 488 489 490 491 492 493 494 495 496 497 498 499 500 501 502 503 504 505 506 507 508 509 510 511 512 513 514 515 516 517 518 519 520 521 522 523 524 525 526 527 528 529 530 531 532 533 534 535 536 537 538 539 540 541 542 543 544 545 546 547 548 549 550 551 552 553 554 555 556 557 558 559 560 561 562 563 564 565 566 567 568 569 570 571 572 573 574 575 576 577 578 579 580 581 582 583 584 585 586 587 588 589 590 591 592 593 594 595 596 597 598 599 600 601 602 603 604 605 606 607 608 609 610 611 612 613 614 615 616 617 618 619 620 621 622 623 624 625 626 627 628 629 630 631 632 633 634 635 636 637 638 639 640 641 642 643 644 645 646 647 648 649 650 651 652 653 654 655 656 657 658 659 660 661 662 663 664 665 666 667 668 669 670 671 672 673 674 675 676 677 678 679 680 681 682 683 684 685 686 687 688 689 690 691 692 693 694 695 696 697 698 699 700 701 702 703 704 705 706 707 708 709 710 711 712 713 714 715 716 717 718 719 720 721 722 723 724 725 726 727 728 729 730 731 732 733 734 735 736 737 738 739 740 741 742 743 744 745 746 747 748 749 750 751 752 753 754 755 756 757 758 759 760 761 762 763 764 765 766 767 768 769 770 771 772 773 774 775 776 777 778 779 780 781 782 783 784 785 786 787 788 789 790 791 792 793 794 795 796 797 798 799 800 801 802 803 804 805 806 807 808 809 810 811 812 813 814 815 816 817 818 819 820 821 822 823 824 825 826 827 828 829 830 831 832 833 834 835 836 837 838 839 840 841 842 843 844 845 846 847 848 849 850 851 852 853 854 855 856 857 858 859 860 861 862 863 864 865 866 867 868 869 870 871 872 873 874 875 876 877 878 879 880 881 882 883 884 885 886 887 888 889 890 891 892 893 894 895 896 897 898 899 900 901 902 903 904 905 906 907 908 909 910 911 912 913 914 915 916 917 918 919 920 921 922 923 924 925 926 927 928 929 930 931 932 933 934 935 936 937 938 939 940 941 942 943 944 945 946 947 948 949 950 951 952 953 954 955 956 957 958 959 960 961 962 963 964 965 966 967 968 969 970 971 972 973 974 975 976 977 978 979 980 981 982 983 984 985 986 987 988 989 990 991 992 993 994 995 996 997 998 999 1000 1001 1002 1003 1004 1005 1006 1007 1008 1009 1010 1011 1012 1013 1014 1015 1016 1017 1018 1019 1020 1021 1022 1023 1024 1025 1026 1027 1028 1029 1030 1031 1032 1033 1034 1035 1036 1037 1038 1039 1040 1041 1042 1043 1044 1045 1046 1047 1048 1049 1050 1051 1052 1053 1054 1055 1056 1057 1058 1059 1060 1061 1062 1063 1064 1065 1066 1067 1068 1069 1070 1071 1072 1073 1074 1075 1076 1077 1078 
 1:  0  0  0  0  0  0  0  0  0  0  0  0  0  0  0  0  0  0  0  0  0  0  0  0  0  0  0  0  0  0  0  0  0  0  0  0  0  0  0  0  0  0  0  0  0  0  0  0  0  0  0  0  0  0  0  0  0  0  0  0  0  0  0  0  0  1  1  0  0  0  0  0  0  0  0  0  0  0  0  0  0  0  0  0  0  0  0  0  0  0  0  0  0  0  0  0  0  0  0  0  0  0  0  0  0  0  0  0  0  0  0  0  0  0  0  0  0  0  0  0  0  0  0  0  0  0  0  0  0  0  0  0  0  0  0  0  0  0  0  0  0  0  0  0  0  0  0  0  0  0  0  0  0  0  0  0  0  0  0  0  0  0  0  0  0  0  0  0  0  0  0  0  0  0  0  0  0  0  0  0  0  0  0  0  0  0  0  0  0  0  0  0  0  0  0  0  0  0  0  0  0  0  0  0  0  0  0  0  0  0  0  0  0  0  0  0  0  0  0  0  0  0  0  0  0  0  0  0  0  0  0  0  0  0  0  0  0  0  0  0  0  0  0  0  0  0  0  0  0  0  0  0  0  0  0  0  0  0  0  0  0  0  0  0  0  0  0  0  0  0  0  0  0  0  0  0  0  0  0  0  0  0  0  0  0  0  0  0  0  0  0  0  0  0  0  0  0  0  0  0  0  0  0  0  0  0  0  0  0  0  0  0  0  0  0  0  0  0  0  0  0  0  0  0  0  0  0  0  0  0  0  0  0  0  0  0  0  0  0  0  0  0  0  0  0  0  0  0  0  0  0  0  0  0  0  0  0  0  0  0  0  0  0  0  0  0  0  0  0  0  0  0  0  0  0  0  0  0  0  0  0  0  0  0  0  0  0  0  0  0  0  0  0  0  0  0  0  0  0  0  0  0  0  0  0  0  0  0  0  0  0  0  0  0  0  0  0  0  0  0  0  0  0  0  0  0  0  0  0  0  0  0  0  0  0  0  0  0  0  0  0  0  0  0  0  0  0  0  0  0  0  0  0  0  0  0  0  0  0  0  0  0  0  0  0  0  0  0  0  0  0  0  0  0  0  0  0  0  0  0  0  0  0  0  0  0  0  0  0  0  0  0  0  0  0  0  0  0  0  0  0  0  0  0  0  0  0  0  0  0  0  0  0  0  0  0  0  0  0  0  0  0  0  0  0  0  0  0  0  0  0  0  0  0  0  0  0  0  0  0  0  0  0  0  0  0  0  0  0  0  0  0  0  0  0  0  0  0  0  0  0  0  0  0  0  0  0  0  0  0  0  0  0  0  0  0  0  0  0  0  0  0  0  0  0  0  0  0  0  0  0  0  0  0  0  0  0  0  0  0  0  0  0  0  0  0  0  0  0  0  0  0  0  0  0  0  0  0  0  0  0  0  0  0  0  0  0  0  0  0  0  0  0  0  0  0  0  0  0  0  0  0  0  0  0  0  0  0  0  0  0  0  0  0  0  0  0  0  0  0  0  0  0  0  0  0  0  0  0  0  0  0  0  0  0  0  0  0  0  0  0  0  0  0  0  0  0  0  0  0  0  0  0  0  0  0  0  0  0  0  0  0  0  0  0  0  0  0  0  0  0  0  0  0  0  0  0  0  0  0  0  0  0  0  0  0  0  0  0  0  0  0  0  0  0  0  0  0  0  0  0  0  0  0  0  0  0  0  0  0  0  0  0  0  0  0  0  0  0  0  0  0  0  0  0  0  0  0  0  0  0  0  0  0  0  0  0  0  0  0  0  0  0  0  0  0  0  0  0  0  0  0  0  0  0  0  0  0  0  0  0  0  0  0  0  0  0  0  0  0  0  0  0  0  0  0  0  0  0  0  0  0  0  0  0  0  0  0  0  0  0  0  0  0  0  0  0  0  0  0  0  0  0  0  0  0  0  0  0  0  0  0  0  0  0  0  0  0  0  0  0  0  0  0  0  0  0  0  0  0  0  0  0  0  0  0  0  0  0  0  0  0  0  0  0  0  0  0  0  0  0  0  0  0  0  0  0  0  0  0  0  0  0  0  0  0  0  0  0  0  0  0  0  0  0  0  0  0  0  0  0  0  0  0  0  0  0  0  0  0  0  0  0  0  0  0  0  0  0  0  0  0  0  0  0  0  0  0  0  0  0  0  0  0  0  0  0  0  0  0  0  0  0  0  0  0  0  0  0  0  0  0  0  0  0  0  0  0  0  0  0  0  0  0  0  0  0  0  0  0  0  0  0  0  0  0  0  0  0  0  0  0  0  0  0  0  0  0  0  0  0  0  0  0  0  0  0  0  0  0  0  0  0  0  0  0  0  0  0  0  0  0  0  0  0  0  0  0  0  0  0  0  0  0  0  0  0  0  0  0  0  0  0  0  0  0  0  0  0  0  0  0  0  0  0  0  0  0  0  0  0  0  0  0  0  0  0  0 
 2:  0  0  1  0  0  0  0  0  0  1  0  0  0  0  0  0  0  0  0  0  0  0  0  0  1  0  0  0  0  0  0  0  0  0  0  0  0  0  0  0  0  0  0  0  0  0  0  0  0  0  0  0  0  0  0  0  0  0  0  0  0  0  0  0  0  0  0  0  0  0  0  0  0  0  0  0  0  0  0  0  0  0  0  0  0  0  0  0  0  0  0  0  0  0  0  0  0  0  0  0  0  0  0  0  0  0  0  0  0  0  0  0  0  0  0  0  0  0  0  0  0  0  0  0  0  0  0  0  0  0  0  0  0  0  0  0  0  0  0  0  0  0  0  0  0  0  0  0  0  0  0  0  0  0  0  0  0  0  0  0  0  0  0  0  0  0  0  0  0  0  0  0  0  0  0  0  0  0  0  0  0  0  0  0  0  0  0  0  0  0  0  0  0  0  0  0  0  0  0  0  0  0  0  0  0  0  0  0  0  0  0  0  0  0  0  0  0  0  0  0  0  0  0  0  0  0  0  0  0  0  0  0  0  0  0  0  0  0  0  0  0  0  0  0  0  0  0  0  0  0  0  0  0  0  0  0  0  0  0  0  0  0  0  0  0  0  0  0  0  0  0  0  0  0  0  0  0  0  0  0  0  0  0  0  0  0  0  0  0  0  0  0  0  0  0  0  0  0  0  0  0  0  0  0  0  0  0  0  0  0  0  0  0  0  0  0  0  0  0  0  0  0  0  0  0  0  0  0  0  0  0  0  0  0  0  0  0  0  0  0  0  0  0  0  0  0  0  0  0  0  0  0  0  0  0  0  0  0  0  0  0  0  0  0  0  0  0  0  0  0  0  0  0  0  0  0  0  0  0  0  0  0  0  0  0  0  0  0  0  0  0  0  0  0  0  0  0  0  0  0  0  0  0  0  0  0  0  0  0  0  0  0  0  0  0  0  0  0  0  0  0  0  0  0  0  0  0  0  0  0  0  0  0  0  0  0  0  0  0  0  0  0  0  0  0  0  0  0  0  0  0  0  0  0  0  0  0  0  0  0  0  0  0  0  0  0  0  0  0  0  0  0  0  0  0  0  0  0  0  0  0  0  0  0  0  0  0  0  0  0  0  0  0  0  0  0  0  0  0  0  0  0  0  0  0  0  0  0  0  0  0  0  0  0  0  0  0  0  0  0  0  0  0  0  0  0  0  0  0  0  0  0  0  0  0  0  0  0  0  0  0  0  0  0  0  0  0  0  0  0  0  0  0  0  0  0  0  0  0  0  0  0  0  0  0  0  0  0  0  0  0  0  0  0  0  0  0  0  0  0  0  0  0  0  0  0  0  0  0  0  0  0  0  0  0  0  0  0  0  0  0  0  0  0  0  0  0  0  0  0  0  0  0  0  0  0  0  0  0  0  0  0  0  0  0  0  0  0  0  0  0  0  0  0  0  0  0  0  0  0  0  0  0  0  0  0  0  0  0  0  0  0  0  0  0  0  0  0  0  0  0  0  0  0  0  0  0  0  0  0  0  0  0  0  0  0  0  0  0  0  0  0  0  0  0  0  0  0  0  0  0  0  0  0  0  0  0  0  0  0  0  0  0  0  0  0  0  0  0  0  0  0  0  0  0  0  0  0  0  0  0  0  0  0  0  0  0  0  0  0  0  0  0  0  0  0  0  0  0  0  0  0  0  0  0  0  0  0  0  0  0  0  0  0  0  0  0  0  0  0  0  0  0  0  0  0  0  0  0  0  0  0  0  0  0  0  0  0  0  0  0  0  0  0  0  0  0  0  0  0  0  0  0  0  0  0  0  0  0  0  0  0  0  0  0  0  0  0  0  0  0  0  0  0  0  0  0  0  0  0  0  0  0  0  0  0  0  0  0  0  0  0  0  0  0  0  0  0  0  0  0  0  0  0  0  0  0  0  0  0  0  0  0  0  0  0  0  0  0  0  0  0  0  0  0  0  0  0  0  0  0  0  0  0  0  0  0  0  0  0  0  0  0  0  0  0  0  0  0  0  0  0  0  0  0  0  0  0  0  0  0  0  0  0  0  0  0  0  0  0  0  0  0  0  0  0  0  0  0  0  0  0  0  0  0  0  0  0  0  0  0  0  0  0  0  0  0  0  0  0  0  0  0  0  0  0  0  0  0  0  0  0  0  0  0  0  0  0  0  0  0  0  0  0  0  0  0  0  0  0  0  0  0  0  0  0  0  0  0  0  0  0  0  0  0  0  0  0  0  0  0  0  0  0  0  0  0  0  0  0  0  0  0  0  0  0  0  0  0  0  0  0  0  0  0  0  0  0  0  0  0  0  0  0  0  0  0  0  0  0  0  0  0  0  0  0  0  0  0  0  0  0  0  0  0  0  0  0  0  0  0  0  0  0  0  0  0  0  0  0  0  0  0  0  0  0  0  0  0  0  0  0  0  0  0  0  0  0 
 3:  0  1  0  0  0  0  0  0  0  0  0  0  0  0  0  0  0  0  0  0  0  0  0  0  0  0  0  0  0  1  0  0  0  0  0  0  0  0  0  0  0  0  0  0  0  0  0  0  0  0  0  0  0  0  0  0  0  0  0  0  0  0  0  0  0  0  0  0  0  0  0  0  0  0  0  0  0  0  0  0  0  0  0  0  0  0  0  0  0  0  0  0  0  0  0  0  0  0  0  0  0  0  0  0  0  0  0  0  0  0  0  0  0  0  0  0  0  0  0  0  0  0  0  0  0  0  0  0  0  0  0  0  0  0  0  0  0  0  0  0  0  0  0  0  0  0  0  0  0  0  0  0  0  0  0  0  0  0  0  0  0  0  0  0  0  0  0  0  0  0  0  0  0  0  0  0  0  0  0  0  0  0  0  0  0  0  0  0  0  0  0  0  0  0  0  0  0  0  0  0  0  0  0  0  0  0  0  0  0  0  0  0  0  0  0  0  0  0  0  0  0  0  0  0  0  0  0  0  0  0  0  0  0  0  0  0  0  0  0  0  0  0  0  0  0  0  0  0  0  0  0  0  0  0  0  0  0  0  0  0  0  0  0  0  0  0  0  0  0  0  0  0  0  0  0  0  0  0  0  0  0  0  0  0  0  0  0  0  0  0  0  0  0  0  0  0  0  0  0  0  0  0  0  0  0  0  0  0  0  0  0  0  0  0  0  0  0  0  0  0  0  0  0  0  0  0  0  0  0  0  0  0  0  0  0  0  0  0  0  0  0  0  0  0  0  0  0  0  0  0  0  0  0  0  0  0  0  0  0  0  0  0  0  0  0  0  0  0  0  0  0  0  0  0  0  0  0  0  0  0  0  0  0  0  0  0  0  0  0  0  0  0  0  0  0  0  0  0  0  0  0  0  0  0  0  0  0  0  0  0  0  0  0  0  0  0  0  0  0  0  0  0  0  0  0  0  0  0  0  0  0  0  0  0  0  0  0  0  0  0  0  0  0  0  0  0  0  0  0  0  0  0  0  0  0  0  0  0  0  0  0  0  0  0  0  0  0  0  0  0  0  0  0  0  0  0  0  0  0  0  0  0  0  0  0  0  0  0  0  0  0  0  0  0  0  0  0  0  0  0  0  0  0  0  0  0  0  0  0  0  0  0  0  0  0  0  0  0  0  0  0  0  0  0  0  0  0  0  0  0  0  0  0  0  0  0  0  0  0  0  0  0  0  0  0  0  0  0  0  0  0  0  0  0  0  0  0  0  0  0  0  0  0  0  0  0  0  0  0  0  0  0  0  0  0  0  0  0  0  0  0  0  0  0  0  0  0  0  0  0  0  0  0  0  0  0  0  0  0  0  0  0  0  0  0  0  0  0  0  0  0  0  0  0  0  0  0  0  0  0  0  0  0  0  0  0  0  0  0  0  0  0  0  0  0  0  0  0  0  0  0  0  0  0  0  0  0  0  0  0  0  0  0  0  0  0  0  0  0  0  0  0  0  0  0  0  0  0  0  0  0  0  0  0  0  0  0  0  0  0  0  0  0  0  0  0  0  0  0  0  0  0  0  0  0  0  0  0  0  0  0  0  0  0  0  0  0  0  0  0  0  0  0  0  0  0  0  0  0  0  0  0  0  0  0  0  0  0  0  0  0  0  0  0  0  0  0  0  0  0  0  0  0  0  0  0  0  0  0  0  0  0  0  0  0  0  0  0  0  0  0  0  0  0  0  0  0  0  0  0  0  0  0  0  0  0  0  0  0  0  0  0  0  0  0  0  0  0  0  0  0  0  0  0  0  0  0  0  0  0  0  0  0  0  0  0  0  0  0  0  0  0  0  0  0  0  0  0  0  0  0  0  0  0  0  0  0  0  0  0  0  0  0  0  0  0  0  0  0  0  0  0  0  0  0  0  0  0  0  0  0  0  0  0  0  0  0  0  0  0  0  0  0  0  0  0  0  0  0  0  0  0  0  0  0  0  0  0  0  0  0  0  0  0  0  0  0  0  0  0  0  0  0  0  0  0  0  0  0  0  0  0  0  0  0  0  0  0  0  0  0  0  0  0  0  0  0  0  0  0  0  0  0  0  0  0  0  0  0  0  0  0  0  0  0  0  0  0  0  0  0  0  0  0  0  0  0  0  0  0  0  0  0  0  0  0  0  0  0  0  0  0  0  0  0  0  0  0  0  0  0  0  0  0  0  0  0  0  0  0  0  0  0  0  0  0  0  0  0  0  0  0  0  0  0  0  0  0  0  0  0  0  0  0  0  0  0  0  0  0  0  0  0  0  0  0  0  0  0  0  0  0  0  0  0  0  0  0  0  0  0  0  0  0  0  0  0  0  0  0  0  0  0  0  0  0  0  0  0  0  0  0  0  0  0  0  0  0  0  0  0  0  0  0  0  0  0  0  0  0  0  0  0  0  0  0  0  0 
 4:  0  0  0  0  1  0  0  0  0  0  0  0  0  0  0  0  0  0  0  0  0  0  0  0  0  0  0  0  0  0  0  0  0  0  0  0  0  0  0  0  0  0  0  0  0  0  0  0  0  0  0  0  0  0  0  0  0  0  0  0  0  0  0  0  0  0  0  0  0  0  0  0  0  0  0  0  0  0  0  0  0  0  0  0  0  0  0  0  0  0  0  0  0  0  0  0  0  0  0  0  0  0  0  0  0  0  0  0  0  0  0  0  0  0  0  0  0  0  0  0  0  0  0  0  0  0  0  0  0  0  0  0  0  0  0  0  0  0  0  0  0  0  0  0  0  0  0  0  0  0  0  0  0  0  0  0  0  0  0  0  0  0  0  0  0  0  0  0  0  0  0  0  0  0  0  0  0  0  0  0  0  0  0  0  0  0  0  0  0  0  0  0  0  0  0  0  0  0  0  0  0  0  0  0  0  0  0  0  0  0  0  0  0  0  0  0  0  0  0  0  0  0  0  0  0  0  0  0  0  0  0  0  0  0  0  0  0  0  0  0  0  0  0  0  0  0  0  0  0  0  0  0  0  0  0  0  0  0  0  0  0  0  0  0  0  0  0  0  0  0  0  0  0  0  0  0  0  0  0  0  0  0  0  0  0  0  0  0  0  0  0  0  0  0  0  0  0  0  0  0  0  0  0  0  0  0  0  0  0  0  0  0  0  0  0  0  0  0  0  0  0  0  0  0  0  0  0  0  0  0  0  0  0  0  0  0  0  0  0  0  0  0  0  0  0  0  0  0  0  0  0  0  0  0  0  0  0  0  0  0  0  0  0  0  0  0  0  0  0  0  0  0  0  0  0  0  0  0  0  0  0  0  0  0  0  0  0  0  0  0  0  0  0  0  0  0  0  0  0  0  0  0  0  0  0  0  0  0  0  0  0  0  0  0  0  0  0  0  0  0  0  0  0  0  0  0  0  0  0  0  0  0  0  0  0  0  0  0  0  0  0  0  0  0  0  0  0  0  0  0  0  0  0  0  0  0  0  0  0  0  0  0  0  0  0  0  0  0  0  0  0  0  0  0  0  0  0  0  0  0  0  0  0  0  0  0  0  0  0  0  0  0  0  0  0  0  0  0  0  0  0  0  0  0  0  0  0  0  0  0  0  0  0  0  0  0  0  0  0  0  0  0  0  0  0  0  0  0  0  0  0  0  0  0  0  0  0  0  0  0  0  0  0  0  0  0  0  0  0  0  0  0  0  0  0  0  0  0  0  0  0  0  0  0  0  0  0  0  0  0  0  0  0  0  0  0  0  0  0  0  0  0  0  0  0  0  0  0  0  0  0  0  0  0  0  0  0  0  0  0  0  0  0  0  0  0  0  0  0  0  0  0  0  0  0  0  0  0  0  0  0  0  0  0  0  0  0  0  0  0  0  0  0  0  0  0  0  0  0  0  0  0  0  0  0  0  0  0  0  0  0  0  0  0  0  0  0  0  0  0  0  0  0  0  0  0  0  0  0  0  0  0  0  0  0  0  0  0  0  0  0  0  0  0  0  0  0  0  0  0  0  0  0  0  0  0  0  0  0  0  0  0  0  0  0  0  0  0  0  0  0  0  0  0  0  0  0  0  0  0  0  0  0  0  0  0  0  0  0  0  0  0  0  0  0  0  0  0  0  0  0  0  0  0  0  0  0  0  0  0  0  0  0  0  0  0  0  0  0  0  0  0  0  0  0  0  0  0  0  0  0  0  0  0  0  0  0  0  0  0  0  0  0  0  0  0  0  0  0  0  0  0  0  0  0  0  0  0  0  0  0  0  0  0  0  0  0  0  0  0  0  0  0  0  0  0  0  0  0  0  0  0  0  0  0  0  0  0  0  0  0  0  0  0  0  0  0  0  0  0  0  0  0  0  0  0  0  0  0  0  0  0  0  0  0  0  0  0  0  0  0  0  0  0  0  0  0  0  0  0  0  0  0  0  0  0  0  0  0  0  0  0  0  0  0  0  0  0  0  0  0  0  0  0  0  0  0  0  0  0  0  0  0  0  0  0  0  0  0  0  0  0  0  0  0  0  0  0  0  0  0  0  0  0  0  0  0  0  0  0  0  0  0  0  0  0  0  0  0  0  0  0  0  0  0  0  0  0  0  0  0  0  0  0  0  0  0  0  0  0  0  0  0  0  0  0  0  0  0  0  0  0  0  0  0  0  0  0  0  0  0  0  0  0  0  0  0  0  0  0  0  0  0  0  0  0  0  0  0  0  0  0  0  0  0  0  0  0  0  0  0  0  0  0  0  0  0  0  0  0  0  0  0  0  0  0  0  0  0  0  0  0  0  0  0  0  0  0  0  0  0  0  0  0  0  0  0  0  0  0  0  0  0  0  0  0  0  0  0  0  0  0  0  0  0  0  0  0  0  0  0  0  0  0  0  0  0  0 
 5:  0  0  0  1  0  0  0  0  0  0  0  0  0  0  0  0  0  0  0  0  0  0  0  0  0  0  0  0  0  0  0  0  0  0  0  0  0  0  1  0  0  0  0  1  0  0  0  0  0  0  0  0  0  0  0  0  0  0  0  0  0  0  0  0  0  0  0  0  0  0  0  0  0  0  0  0  0  0  0  0  0  0  0  0  0  0  0  0  0  0  0  0  0  0  0  0  0  0  0  0  0  0  0  0  0  0  0  0  0  0  0  0  0  0  0  0  0  0  0  0  0  0  0  0  0  0  0  0  0  0  0  0  0  0  0  0  0  0  0  0  0  0  0  0  0  0  0  0  0  0  0  0  0  0  0  0  0  0  0  0  0  0  0  0  0  0  0  0  0  0  0  0  0  0  0  0  0  0  0  0  0  0  0  0  0  0  0  0  0  0  0  0  0  0  0  0  0  0  0  0  0  0  0  0  0  0  0  0  0  0  0  0  0  0  0  0  0  0  0  0  0  0  0  0  0  0  0  0  0  0  0  0  0  0  0  0  0  0  0  0  0  0  0  0  0  0  0  0  0  0  0  0  0  0  0  0  0  0  0  0  0  0  0  0  0  0  0  0  0  0  0  0  0  0  0  0  0  0  0  0  0  0  0  0  0  0  0  0  0  0  0  0  0  0  0  0  0  0  0  0  0  0  0  0  0  0  0  0  0  0  0  0  0  0  0  0  0  0  0  0  0  0  0  0  0  0  0  0  0  0  0  0  0  0  0  0  0  0  0  0  0  0  0  0  0  0  0  0  0  0  0  0  0  0  0  0  0  0  0  0  0  0  0  0  0  0  0  0  0  0  0  0  0  0  0  0  0  0  0  0  0  0  0  0  0  0  0  0  0  0  0  0  0  0  0  0  0  0  0  0  0  0  0  0  0  0  0  0  0  0  0  0  0  0  0  0  0  0  0  0  0  0  0  0  0  0  0  0  0  0  0  0  0  0  0  0  0  0  0  0  0  0  0  0  0  0  0  0  0  0  0  0  0  0  0  0  0  0  0  0  0  0  0  0  0  0  0  0  0  0  0  0  0  0  0  0  0  0  0  0  0  0  0  0  0  0  0  0  0  0  0  0  0  0  0  0  0  0  0  0  0  0  0  0  0  0  0  0  0  0  0  0  0  0  0  0  0  0  0  0  0  0  0  0  0  0  0  0  0  0  0  0  0  0  0  0  0  0  0  0  0  0  0  0  0  0  0  0  0  0  0  0  0  0  0  0  0  0  0  0  0  0  0  0  0  0  0  0  0  0  0  0  0  0  0  0  0  0  0  0  0  0  0  0  0  0  0  0  0  0  0  0  0  0  0  0  0  0  0  0  0  0  0  0  0  0  0  0  0  0  0  0  0  0  0  0  0  0  0  0  0  0  0  0  0  0  0  0  0  0  0  0  0  0  0  0  0  0  0  0  0  0  0  0  0  0  0  0  0  0  0  0  0  0  0  0  0  0  0  0  0  0  0  0  0  0  0  0  0  0  0  0  0  0  0  0  0  0  0  0  0  0  0  0  0  0  0  0  0  0  0  0  0  0  0  0  0  0  0  0  0  0  0  0  0  0  0  0  0  0  0  0  0  0  0  0  0  0  0  0  0  0  0  0  0  0  0  0  0  0  0  0  0  0  0  0  0  0  0  0  0  0  0  0  0  0  0  0  0  0  0  0  0  0  0  0  0  0  0  0  0  0  0  0  0  0  0  0  0  0  0  0  0  0  0  0  0  0  0  0  0  0  0  0  0  0  0  0  0  0  0  0  0  0  0  0  0  0  0  0  0  0  0  0  0  0  0  0  0  0  0  0  0  0  0  0  0  0  0  0  0  0  0  0  0  0  0  0  0  0  0  0  0  0  0  0  0  0  0  0  0  0  0  0  0  0  0  0  0  0  0  0  0  0  0  0  0  0  0  0  0  0  0  0  0  0  0  0  0  0  0  0  0  0  0  0  0  0  0  0  0  0  0  0  0  0  0  0  0  0  0  0  0  0  0  0  0  0  0  0  0  0  0  0  0  0  0  0  0  0  0  0  0  0  0  0  0  0  0  0  0  0  0  0  0  0  0  0  0  0  0  0  0  0  0  0  0  0  0  0  0  0  0  0  0  0  0  0  0  0  0  0  0  0  0  0  0  0  0  0  0  0  0  0  0  0  0  0  0  0  0  0  0  0  0  0  0  0  0  0  0  0  0  0  0  0  0  0  0  0  0  0  0  0  0  0  0  0  0  0  0  0  0  0  0  0  0  0  0  0  0  0  0  0  0  0  0  0  0  0  0  0  0  0  0  0  0  0  0  0  0  0  0  0  0  0  0  0  0  0  0  0  0  0  0  0  0  0  0  0  0  0  0  0  0  0  0  0  0  0  0  0  0  0  0  0  0  0  0  0  0  0  0  0  0  0  0  0 
[...]
  Region 203: Color 3
  Region 204: Color 2
  Region 205: Color 2
  Region 206: Color 1
  Region 207: Color 3
  Region 208: Color 2
  Region 209: Color 1
  Region 210: Color 2
  Region 211: Color 3
  Region 212: Color 1
  Region 213: Color 2
  Region 214: Color 1
  Region 215: Color 2
  Region 216: Color 3
  Region 217: Color 1
  Region 218: Color 3
  Region 219: Color 4
  Region 220: Color 3
  Region 221: Color 3
  Region 222: Color 2
  Region 223: Color 1
  Region 224: Color 1
  Region 225: Color 3
  Region 226: Color 3
  Region 227: Color 3
  Region 228: Color 1
  Region 229: Color 3
  Region 230: Color 1
  Region 231: Color 3
  Region 232: Color 2
  Region 233: Color 3
  Region 234: Color 1
  Region 235: Color 2
  Region 236: Color 3
  Region 237: Color 2
  Region 238: Color 2
  Region 239: Color 1
  Region 240: Color 1
  Region 241: Color 3
  Region 242: Color 3
  Region 243: Color 3
  Region 244: Color 2
  Region 245: Color 4
  Region 246: Color 2
  Region 247: Color 4
  Region 248: Color 1
  Region 249: Color 2
  Region 250: Color 1
  Region 251: Color 3
  Region 252: Color 2
  Region 253: Color 1
  Region 254: Color 1
  Region 255: Color 2
  Region 256: Color 3
  Region 257: Color 1
  Region 258: Color 1
  Region 259: Color 4
  Region 260: Color 1
  Region 261: Color 2
  Region 262: Color 1
  Region 263: Color 2
  Region 264: Color 1
  Region 265: Color 3
  Region 266: Color 2
  Region 267: Color 3
  Region 268: Color 2
  Region 269: Color 2
  Region 270: Color 1
  Region 271: Color 1
  Region 272: Color 1
  Region 273: Color 2
  Region 274: Color 1
  Region 275: Color 2
  Region 276: Color 3
  Region 277: Color 2
  Region 278: Color 3
  Region 279: Color 1
  Region 280: Color 2
  Region 281: Color 3
  Region 282: Color 1
  Region 283: Color 2
  Region 284: Color 2
  Region 285: Color 1
  Region 286: Color 2
  Region 287: Color 3
  Region 288: Color 2
  Region 289: Color 3
  Region 290: Color 2
  Region 291: Color 3
  Region 292: Color 3
  Region 293: Color 2
  Region 294: Color 1
  Region 295: Color 2
  Region 296: Color 2
  Region 297: Color 1
  Region 298: Color 3
  Region 299: Color 2
  Region 300: Color 2
  Region 301: Color 1
  Region 302: Color 1
  Region 303: Color 3
  Region 304: Color 3
  Region 305: Color 1
  Region 306: Color 1
  Region 307: Color 4
  Region 308: Color 3
  Region 309: Color 2
  Region 310: Color 2
  Region 311: Color 3
  Region 312: Color 1
  Region 313: Color 3
  Region 314: Color 1
  Region 315: Color 1
  Region 316: Color 1
  Region 317: Color 1
  Region 318: Color 4
  Region 319: Color 1
  Region 320: Color 2
  Region 321: Color 2
  Region 322: Color 1
  Region 323: Color 3
  Region 324: Color 2
  Region 325: Color 1
  Region 326: Color 2
  Region 327: Color 3
  Region 328: Color 1
  Region 329: Color 1
  Region 330: Color 3
  Region 331: Color 2
  Region 332: Color 1
  Region 333: Color 3
  Region 334: Color 3
  Region 335: Color 2
  Region 336: Color 2
  Region 337: Color 1
  Region 338: Color 1
  Region 339: Color 2
  Region 340: Color 1
  Region 341: Color 2
  Region 342: Color 2
  Region 343: Color 3
  Region 344: Color 1
  Region 345: Color 1
  Region 346: Color 3
  Region 347: Color 3
  Region 348: Color 2
  Region 349: Color 3
  Region 350: Color 1
  Region 351: Color 1
  Region 352: Color 2
  Region 353: Color 1
  Region 354: Color 3
  Region 355: Color 3
  Region 356: Color 2
  Region 357: Color 1
  Region 358: Color 2
  Region 359: Color 3
  Region 360: Color 1
  Region 361: Color 3
  Region 362: Color 3
  Region 363: Color 2
  Region 364: Color 3
  Region 365: Color 3
  Region 366: Color 2
  Region 367: Color 2
  Region 368: Color 2
  Region 369: Color 2
  Region 370: Color 1
  Region 371: Color 2
  Region 372: Color 2
  Region 373: Color 2
  Region 374: Color 3
  Region 375: Color 1
  Region 376: Color 3
  Region 377: Color 2
  Region 378: Color 1
  Region 379: Color 3
  Region 380: Color 1
  Region 381: Color 3
  Region 382: Color 1
  Region 383: Color 2
  Region 384: Color 2
  Region 385: Color 3
  Region 386: Color 1
  Region 387: Color 2
  Region 388: Color 1
  Region 389: Color 3
  Region 390: Color 2
  Region 391: Color 2
  Region 392: Color 1
  Region 393: Color 1
  Region 394: Color 2
  Region 395: Color 1
  Region 396: Color 2
  Region 397: Color 3
  Region 398: Color 1
  Region 399: Color 3
  Region 400: Color 2
  Region 401: Color 1
  Region 402: Color 3
  Region 403: Color 1
  Region 404: Color 3
  Region 405: Color 2
  Region 406: Color 1
  Region 407: Color 2
  Region 408: Color 1
  Region 409: Color 1
  Region 410: Color 2
  Region 411: Color 3
  Region 412: Color 1
  Region 413: Color 2
  Region 414: Color 1
  Region 415: Color 2
  Region 416: Color 2
  Region 417: Color 2
  Region 418: Color 1
  Region 419: Color 2
  Region 420: Color 1
  Region 421: Color 2
  Region 422: Color 1
  Region 423: Color 3
  Region 424: Color 2
  Region 425: Color 2
  Region 426: Color 1
  Region 427: Color 3
  Region 428: Color 1
  Region 429: Color 2
  Region 430: Color 1
  Region 431: Color 2
  Region 432: Color 2
  Region 433: Color 1
  Region 434: Color 3
  Region 435: Color 2
  Region 436: Color 1
  Region 437: Color 2
  Region 438: Color 1
  Region 439: Color 3
  Region 440: Color 1
  Region 441: Color 2
  Region 442: Color 1
  Region 443: Color 2
  Region 444: Color 2
  Region 445: Color 1
  Region 446: Color 1
  Region 447: Color 2
  Region 448: Color 1
  Region 449: Color 1
  Region 450: Color 3
  Region 451: Color 1
  Region 452: Color 1
  Region 453: Color 2
  Region 454: Color 1
  Region 455: Color 2
  Region 456: Color 1
  Region 457: Color 2
  Region 458: Color 1
  Region 459: Color 2
  Region 460: Color 2
  Region 461: Color 2
  Region 462: Color 3
  Region 463: Color 2
  Region 464: Color 2
  Region 465: Color 3
  Region 466: Color 2
  Region 467: Color 3
  Region 468: Color 3
  Region 469: Color 3
  Region 470: Color 1
  Region 471: Color 3
  Region 472: Color 2
  Region 473: Color 2
  Region 474: Color 2
  Region 475: Color 4
  Region 476: Color 2
  Region 477: Color 2
  Region 478: Color 2
  Region 479: Color 1
  Region 480: Color 2
  Region 481: Color 1
  Region 482: Color 3
  Region 483: Color 3
  Region 484: Color 3
  Region 485: Color 2
  Region 486: Color 1
  Region 487: Color 1
  Region 488: Color 2
  Region 489: Color 1
  Region 490: Color 3
  Region 491: Color 3
  Region 492: Color 1
  Region 493: Color 2
  Region 494: Color 3
  Region 495: Color 2
  Region 496: Color 3
  Region 497: Color 2
  Region 498: Color 2
  Region 499: Color 1
  Region 500: Color 3
  Region 501: Color 3
  Region 502: Color 2
  Region 503: Color 2
  Region 504: Color 2
  Region 505: Color 2
  Region 506: Color 3
  Region 507: Color 2
  Region 508: Color 3
  Region 509: Color 1
  Region 510: Color 1
  Region 511: Color 3
  Region 512: Color 3
  Region 513: Color 2
  Region 514: Color 1
  Region 515: Color 1
  Region 516: Color 3
  Region 517: Color 3
  Region 518: Color 1
  Region 519: Color 1
  Region 520: Color 4
  Region 521: Color 3
  Region 522: Color 2
  Region 523: Color 2
  Region 524: Color 3
  Region 525: Color 2
  Region 526: Color 2
  Region 527: Color 2
  Region 528: Color 1
  Region 529: Color 2
  Region 530: Color 4
  Region 531: Color 3
  Region 532: Color 2
  Region 533: Color 2
  Region 534: Color 1
  Region 535: Color 1
  Region 536: Color 1
  Region 537: Color 1
  Region 538: Color 1
  Region 539: Color 2
  Region 540: Color 2
  Region 541: Color 2
  Region 542: Color 1
  Region 543: Color 2
  Region 544: Color 3
  Region 545: Color 2
  Region 546: Color 1
  Region 547: Color 4
  Region 548: Color 3
  Region 549: Color 1
  Region 550: Color 1
  Region 551: Color 3
  Region 552: Color 2
  Region 553: Color 2
  Region 554: Color 3
  Region 555: Color 3
  Region 556: Color 2
  Region 557: Color 2
  Region 558: Color 1
  Region 559: Color 1
  Region 560: Color 2
  Region 561: Color 2
  Region 562: Color 1
  Region 563: Color 3
  Region 564: Color 1
  Region 565: Color 4
  Region 566: Color 2
  Region 567: Color 2
  Region 568: Color 1
  Region 569: Color 3
  Region 570: Color 3
  Region 571: Color 2
  Region 572: Color 1
  Region 573: Color 1
  Region 574: Color 3
  Region 575: Color 1
  Region 576: Color 2
  Region 577: Color 2
  Region 578: Color 2
  Region 579: Color 1
  Region 580: Color 1
  Region 581: Color 2
  Region 582: Color 1
  Region 583: Color 1
  Region 584: Color 2
  Region 585: Color 1
  Region 586: Color 1
  Region 587: Color 2
  Region 588: Color 2
  Region 589: Color 3
  Region 590: Color 2
  Region 591: Color 3
  Region 592: Color 2
  Region 593: Color 2
  Region 594: Color 2
  Region 595: Color 2
  Region 596: Color 2
  Region 597: Color 2
  Region 598: Color 1
  Region 599: Color 3
  Region 600: Color 1
  Region 601: Color 1
  Region 602: Color 1
  Region 603: Color 1
  Region 604: Color 3
  Region 605: Color 1
  Region 606: Color 1
  Region 607: Color 2
  Region 608: Color 2
  Region 609: Color 1
  Region 610: Color 3
  Region 611: Color 1
  Region 612: Color 2
  Region 613: Color 3
  Region 614: Color 3
  Region 615: Color 3
  Region 616: Color 1
  Region 617: Color 2
  Region 618: Color 3
  Region 619: Color 2
  Region 620: Color 1
  Region 621: Color 1
  Region 622: Color 3
  Region 623: Color 2
  Region 624: Color 2
  Region 625: Color 1
  Region 626: Color 2
  Region 627: Color 1
  Region 628: Color 2
  Region 629: Color 1
  Region 630: Color 2
  Region 631: Color 1
  Region 632: Color 2
  Region 633: Color 1
  Region 634: Color 2
  Region 635: Color 2
  Region 636: Color 2
  Region 637: Color 3
  Region 638: Color 3
  Region 639: Color 1
  Region 640: Color 1
  Region 641: Color 2
  Region 642: Color 3
  Region 643: Color 2
  Region 644: Color 3
  Region 645: Color 1
  Region 646: Color 1
  Region 647: Color 3
  Region 648: Color 2
  Region 649: Color 1
  Region 650: Color 3
  Region 651: Color 1
  Region 652: Color 3
  Region 653: Color 2
  Region 654: Color 2
  Region 655: Color 2
  Region 656: Color 2
  Region 657: Color 3
  Region 658: Color 2
  Region 659: Color 1
  Region 660: Color 1
  Region 661: Color 3
  Region 662: Color 1
  Region 663: Color 2
  Region 664: Color 2
  Region 665: Color 2
  Region 666: Color 3
  Region 667: Color 2
  Region 668: Color 1
  Region 669: Color 1
  Region 670: Color 1
  Region 671: Color 2
  Region 672: Color 1
  Region 673: Color 1
  Region 674: Color 1
  Region 675: Color 2
  Region 676: Color 1
  Region 677: Color 3
  Region 678: Color 2
  Region 679: Color 2
  Region 680: Color 2
  Region 681: Color 1
  Region 682: Color 3
  Region 683: Color 1
  Region 684: Color 1
  Region 685: Color 3
  Region 686: Color 1
  Region 687: Color 3
  Region 688: Color 1
  Region 689: Color 1
  Region 690: Color 2
  Region 691: Color 2
  Region 692: Color 1
  Region 693: Color 2
  Region 694: Color 1
  Region 695: Color 3
  Region 696: Color 3
  Region 697: Color 2
  Region 698: Color 3
  Region 699: Color 2
  Region 700: Color 3
  Region 701: Color 3
  Region 702: Color 1
  Region 703: Color 2
  Region 704: Color 2
  Region 705: Color 3
  Region 706: Color 1
  Region 707: Color 2
  Region 708: Color 1
  Region 709: Color 3
  Region 710: Color 1
  Region 711: Color 3
  Region 712: Color 2
  Region 713: Color 4
  Region 714: Color 1
  Region 715: Color 3
  Region 716: Color 1
  Region 717: Color 1
  Region 718: Color 1
  Region 719: Color 1
  Region 720: Color 1
  Region 721: Color 2
  Region 722: Color 2
  Region 723: Color 3
  Region 724: Color 1
  Region 725: Color 3
  Region 726: Color 2
  Region 727: Color 3
  Region 728: Color 3
  Region 729: Color 2
  Region 730: Color 2
  Region 731: Color 3
  Region 732: Color 1
  Region 733: Color 1
  Region 734: Color 3
  Region 735: Color 2
  Region 736: Color 1
  Region 737: Color 2
  Region 738: Color 1
  Region 739: Color 2
  Region 740: Color 2
  Region 741: Color 3
  Region 742: Color 1
  Region 743: Color 3
  Region 744: Color 1
  Region 745: Color 3
  Region 746: Color 2
  Region 747: Color 2
  Region 748: Color 2
  Region 749: Color 1
  Region 750: Color 1
  Region 751: Color 3
  Region 752: Color 1
  Region 753: Color 1
  Region 754: Color 2
  Region 755: Color 3
  Region 756: Color 1
  Region 757: Color 2
  Region 758: Color 3
  Region 759: Color 1
  Region 760: Color 2
  Region 761: Color 2
  Region 762: Color 1
  Region 763: Color 2
  Region 764: Color 2
  Region 765: Color 1
  Region 766: Color 3
  Region 767: Color 1
  Region 768: Color 1
  Region 769: Color 2
  Region 770: Color 2
  Region 771: Color 2
  Region 772: Color 4
  Region 773: Color 3
  Region 774: Color 1
  Region 775: Color 3
  Region 776: Color 3
  Region 777: Color 3
  Region 778: Color 1
  Region 779: Color 2
  Region 780: Color 1
  Region 781: Color 1
  Region 782: Color 3
  Region 783: Color 2
  Region 784: Color 2
  Region 785: Color 3
  Region 786: Color 3
  Region 787: Color 3
  Region 788: Color 3
  Region 789: Color 2
  Region 790: Color 2
  Region 791: Color 3
  Region 792: Color 3
  Region 793: Color 2
  Region 794: Color 3
  Region 795: Color 2
  Region 796: Color 2
  Region 797: Color 1
  Region 798: Color 2
  Region 799: Color 2
  Region 800: Color 2
  Region 801: Color 2
  Region 802: Color 1
  Region 803: Color 3
  Region 804: Color 1
  Region 805: Color 2
  Region 806: Color 2
  Region 807: Color 4
  Region 808: Color 1
  Region 809: Color 3
  Region 810: Color 1
  Region 811: Color 2
  Region 812: Color 4
  Region 813: Color 1
  Region 814: Color 1
  Region 815: Color 1
  Region 816: Color 4
  Region 817: Color 1
  Region 818: Color 3
  Region 819: Color 1
  Region 820: Color 2
  Region 821: Color 2
  Region 822: Color 3
  Region 823: Color 2
  Region 824: Color 1
  Region 825: Color 3
  Region 826: Color 2
  Region 827: Color 3
  Region 828: Color 3
  Region 829: Color 1
  Region 830: Color 1
  Region 831: Color 1
  Region 832: Color 2
  Region 833: Color 1
  Region 834: Color 3
  Region 835: Color 1
  Region 836: Color 2
  Region 837: Color 2
  Region 838: Color 2
  Region 839: Color 3
  Region 840: Color 2
  Region 841: Color 1
  Region 842: Color 3
  Region 843: Color 1
  Region 844: Color 1
  Region 845: Color 2
  Region 846: Color 2
  Region 847: Color 1
  Region 848: Color 2
  Region 849: Color 1
  Region 850: Color 1
  Region 851: Color 2
  Region 852: Color 2
  Region 853: Color 1
  Region 854: Color 1
  Region 855: Color 3
  Region 856: Color 2
  Region 857: Color 2
  Region 858: Color 2
  Region 859: Color 1
  Region 860: Color 3
  Region 861: Color 3
  Region 862: Color 1
  Region 863: Color 2
  Region 864: Color 2
  Region 865: Color 2
  Region 866: Color 2
  Region 867: Color 2
  Region 868: Color 3
  Region 869: Color 3
  Region 870: Color 3
  Region 871: Color 3
  Region 872: Color 2
  Region 873: Color 2
  Region 874: Color 2
  Region 875: Color 1
  Region 876: Color 4
  Region 877: Color 3
  Region 878: Color 1
  Region 879: Color 3
  Region 880: Color 4
  Region 881: Color 1
  Region 882: Color 1
  Region 883: Color 2
  Region 884: Color 3
  Region 885: Color 4
  Region 886: Color 2
  Region 887: Color 3
  Region 888: Color 2
  Region 889: Color 4
  Region 890: Color 2
  Region 891: Color 2
  Region 892: Color 2
  Region 893: Color 3
  Region 894: Color 4
  Region 895: Color 3
  Region 896: Color 2
  Region 897: Color 3
  Region 898: Color 2
  Region 899: Color 1
  Region 900: Color 1
  Region 901: Color 2
  Region 902: Color 1
  Region 903: Color 1
  Region 904: Color 2
  Region 905: Color 4
  Region 906: Color 3
  Region 907: Color 1
  Region 908: Color 1
  Region 909: Color 2
  Region 910: Color 1
  Region 911: Color 1
  Region 912: Color 2
  Region 913: Color 3
  Region 914: Color 2
  Region 915: Color 4
  Region 916: Color 2
  Region 917: Color 1
  Region 918: Color 3
  Region 919: Color 2
  Region 920: Color 2
  Region 921: Color 1
  Region 922: Color 2
  Region 923: Color 1
  Region 924: Color 2
  Region 925: Color 3
  Region 926: Color 1
  Region 927: Color 3
  Region 928: Color 2
  Region 929: Color 1
  Region 930: Color 2
  Region 931: Color 2
  Region 932: Color 1
  Region 933: Color 1
  Region 934: Color 2
  Region 935: Color 2
  Region 936: Color 2
  Region 937: Color 2
  Region 938: Color 1
  Region 939: Color 1
  Region 940: Color 2
  Region 941: Color 3
  Region 942: Color 2
  Region 943: Color 2
  Region 944: Color 1
  Region 945: Color 1
  Region 946: Color 2
  Region 947: Color 2
  Region 948: Color 1
  Region 949: Color 1
  Region 950: Color 3
  Region 951: Color 1
  Region 952: Color 3
  Region 953: Color 2
  Region 954: Color 2
  Region 955: Color 1
  Region 956: Color 1
  Region 957: Color 1
  Region 958: Color 1
  Region 959: Color 2
  Region 960: Color 3
  Region 961: Color 3
  Region 962: Color 2
  Region 963: Color 2
  Region 964: Color 1
  Region 965: Color 1
  Region 966: Color 2
  Region 967: Color 3
  Region 968: Color 2
  Region 969: Color 3
  Region 970: Color 1
  Region 971: Color 4
  Region 972: Color 1
  Region 973: Color 1
  Region 974: Color 3
  Region 975: Color 1
  Region 976: Color 3
  Region 977: Color 1
  Region 978: Color 1
  Region 979: Color 2
  Region 980: Color 3
  Region 981: Color 2
  Region 982: Color 1
  Region 983: Color 2
  Region 984: Color 3
  Region 985: Color 3
  Region 986: Color 2
  Region 987: Color 3
  Region 988: Color 1
  Region 989: Color 3
  Region 990: Color 2
  Region 991: Color 2
  Region 992: Color 1
  Region 993: Color 1
  Region 994: Color 4
  Region 995: Color 2
  Region 996: Color 2
  Region 997: Color 2
  Region 998: Color 4
  Region 999: Color 1
  Region 1000: Color 1
  Region 1001: Color 2
  Region 1002: Color 1
  Region 1003: Color 2
  Region 1004: Color 2
  Region 1005: Color 3
  Region 1006: Color 2
  Region 1007: Color 2
  Region 1008: Color 2
  Region 1009: Color 2
  Region 1010: Color 1
  Region 1011: Color 2
  Region 1012: Color 1
  Region 1013: Color 1
  Region 1014: Color 1
  Region 1015: Color 1
  Region 1016: Color 1
  Region 1017: Color 2
  Region 1018: Color 2
  Region 1019: Color 1
  Region 1020: Color 2
  Region 1021: Color 2
  Region 1022: Color 2
  Region 1023: Color 2
  Region 1024: Color 3
  Region 1025: Color 1
  Region 1026: Color 1
  Region 1027: Color 1
  Region 1028: Color 1
  Region 1029: Color 3
  Region 1030: Color 2
  Region 1031: Color 3
  Region 1032: Color 2
  Region 1033: Color 2
  Region 1034: Color 1
  Region 1035: Color 2
  Region 1036: Color 3
  Region 1037: Color 1
  Region 1038: Color 2
  Region 1039: Color 1
  Region 1040: Color 2
  Region 1041: Color 2
  Region 1042: Color 3
  Region 1043: Color 1
  Region 1044: Color 1
  Region 1045: Color 2
  Region 1046: Color 2
  Region 1047: Color 2
  Region 1048: Color 3
  Region 1049: Color 1
  Region 1050: Color 1
  Region 1051: Color 2
  Region 1052: Color 2
  Region 1053: Color 1
  Region 1054: Color 1
  Region 1055: Color 1
  Region 1056: Color 1
  Region 1057: Color 2
  Region 1058: Color 2
  Region 1059: Color 3
  Region 1060: Color 1
  Region 1061: Color 2
  Region 1062: Color 2
  Region 1063: Color 2
  Region 1064: Color 1
  Region 1065: Color 2
  Region 1066: Color 2
  Region 1067: Color 1
  Region 1068: Color 2
  Region 1069: Color 1
  Region 1070: Color 3
  Region 1071: Color 1
  Region 1072: Color 2
  Region 1073: Color 2
  Region 1074: Color 3
  Region 1075: Color 1
  Region 1076: Color 1
  Region 1077: Color 1
  Region 1078: Color 1

Total colors used: 4

STEP 6: Applying colors to image
=================================
Image dimensions: 200 x 200 pixels
Color palette:
  Color 0: Black (borders)
  Color 1: Red (255, 0, 0)
  Color 2: Green (0, 255, 0)
  Color 3: Blue (0, 0, 255)
  Color 4: Yellow (255, 255, 0)

Pixel statistics:
  Colored pixels: 29294
  Border pixels: 10706
  Total pixels: 40000
Output file written successfully: out.bmp

FINAL STATISTICS
================
Number of colors used: 4
Coloring algorithm time: 0.0310 seconds
Total execution time: 4.4590 seconds

========================================
Log completed at: Thu Nov 20 16:53:01 2025
