=== MAP COLORING LOG ===
Started at: Sat Oct 18 18:24:57 2025
========================================

MAP COLORING PROCESS STARTED
============================
Input file: test.bmp
Output file: oyt.bmp
Log file: map_coloring_log_oyt.bmp.txt

STEP -1: Reading BMP file
=========================
BMP file read successfully
Image dimensions: 200 x 200 pixels

STEP -2: Region detection
=========================
Region detection completed successfully
Total regions found: 1003

STEP 0: Building adjacency graph
=================================
Image dimensions: 200 x 200
Number of regions: 1003
Added edge: Region 6 <-> Region 21
Added edge: Region 7 <-> Region 8
Added edge: Region 18 <-> Region 22
Added edge: Region 20 <-> Region 30
Added edge: Region 2 <-> Region 3
Added edge: Region 8 <-> Region 31
Added edge: Region 22 <-> Region 38
Added edge: Region 22 <-> Region 23
Added edge: Region 24 <-> Region 23
Added edge: Region 25 <-> Region 26
Added edge: Region 27 <-> Region 26
Added edge: Region 29 <-> Region 40
Added edge: Region 1 <-> Region 43
Added edge: Region 2 <-> Region 43
Added edge: Region 32 <-> Region 31
Added edge: Region 33 <-> Region 49
Added edge: Region 34 <-> Region 49
Added edge: Region 38 <-> Region 23
Added edge: Region 39 <-> Region 23
Added edge: Region 40 <-> Region 41
Added edge: Region 41 <-> Region 55
Added edge: Region 42 <-> Region 56
Added edge: Region 43 <-> Region 3
Added edge: Region 45 <-> Region 57
Added edge: Region 46 <-> Region 47
Added edge: Region 48 <-> Region 47
Added edge: Region 48 <-> Region 31
Added edge: Region 33 <-> Region 58
Added edge: Region 36 <-> Region 61
Added edge: Region 51 <-> Region 64
Added edge: Region 53 <-> Region 52
Added edge: Region 1 <-> Region 65
Added edge: Region 49 <-> Region 59
Added edge: Region 50 <-> Region 59
Added edge: Region 62 <-> Region 68
Added edge: Region 62 <-> Region 63
Added edge: Region 64 <-> Region 63
Added edge: Region 52 <-> Region 51
Added edge: Region 1 <-> Region 69
Added edge: Region 47 <-> Region 70
Added edge: Region 31 <-> Region 71
Added edge: Region 67 <-> Region 76
Added edge: Region 53 <-> Region 54
Added edge: Region 54 <-> Region 77
Added edge: Region 41 <-> Region 77
Added edge: Region 65 <-> Region 78
Added edge: Region 31 <-> Region 79
Added edge: Region 74 <-> Region 73
Added edge: Region 74 <-> Region 83
Added edge: Region 75 <-> Region 76
Added edge: Region 67 <-> Region 68
Added edge: Region 51 <-> Region 63
Added edge: Region 78 <-> Region 84
Added edge: Region 81 <-> Region 80
Added edge: Region 82 <-> Region 73
Added edge: Region 83 <-> Region 73
Added edge: Region 75 <-> Region 88
Added edge: Region 52 <-> Region 90
Added edge: Region 69 <-> Region 3
Added edge: Region 70 <-> Region 91
Added edge: Region 85 <-> Region 92
Added edge: Region 86 <-> Region 85
Added edge: Region 87 <-> Region 80
Added edge: Region 80 <-> Region 93
Added edge: Region 82 <-> Region 93
Added edge: Region 76 <-> Region 94
Added edge: Region 76 <-> Region 95
Added edge: Region 89 <-> Region 63
Added edge: Region 89 <-> Region 97
Added edge: Region 90 <-> Region 97
Added edge: Region 90 <-> Region 98
Added edge: Region 52 <-> Region 98
Added edge: Region 54 <-> Region 99
Added edge: Region 87 <-> Region 102
Added edge: Region 88 <-> Region 94
Added edge: Region 63 <-> Region 103
Added edge: Region 97 <-> Region 63
Added edge: Region 99 <-> Region 104
Added edge: Region 69 <-> Region 105
Added edge: Region 100 <-> Region 106
Added edge: Region 91 <-> Region 101
Added edge: Region 92 <-> Region 107
Added edge: Region 85 <-> Region 108
Added edge: Region 102 <-> Region 108
Added edge: Region 102 <-> Region 109
Added edge: Region 87 <-> Region 109
Added edge: Region 93 <-> Region 110
Added edge: Region 73 <-> Region 110
Added edge: Region 88 <-> Region 111
Added edge: Region 95 <-> Region 96
Added edge: Region 103 <-> Region 96
Added edge: Region 98 <-> Region 104
Added edge: Region 77 <-> Region 112
Added edge: Region 55 <-> Region 113
Added edge: Region 56 <-> Region 84
Added edge: Region 65 <-> Region 114
Added edge: Region 65 <-> Region 105
Added edge: Region 3 <-> Region 115
Added edge: Region 108 <-> Region 92
Added edge: Region 111 <-> Region 116
Added edge: Region 98 <-> Region 117
Added edge: Region 112 <-> Region 118
Added edge: Region 41 <-> Region 119
Added edge: Region 56 <-> Region 113
Added edge: Region 3 <-> Region 120
Added edge: Region 3 <-> Region 121
Added edge: Region 101 <-> Region 107
Added edge: Region 118 <-> Region 123
Added edge: Region 55 <-> Region 124
Added edge: Region 105 <-> Region 120
Added edge: Region 121 <-> Region 115
Added edge: Region 121 <-> Region 125
Added edge: Region 92 <-> Region 128
Added edge: Region 95 <-> Region 131
Added edge: Region 122 <-> Region 123
Added edge: Region 124 <-> Region 132
Added edge: Region 114 <-> Region 84
Added edge: Region 126 <-> Region 127
Added edge: Region 101 <-> Region 134
Added edge: Region 129 <-> Region 128
Added edge: Region 129 <-> Region 135
Added edge: Region 80 <-> Region 136
Added edge: Region 130 <-> Region 137
Added edge: Region 96 <-> Region 138
Added edge: Region 117 <-> Region 122
Added edge: Region 132 <-> Region 139
Added edge: Region 120 <-> Region 142
Added edge: Region 133 <-> Region 142
Added edge: Region 133 <-> Region 143
Added edge: Region 110 <-> Region 145
Added edge: Region 130 <-> Region 146
Added edge: Region 94 <-> Region 131
Added edge: Region 131 <-> Region 138
Added edge: Region 139 <-> Region 147
Added edge: Region 139 <-> Region 140
Added edge: Region 142 <-> Region 143
Added edge: Region 107 <-> Region 144
Added edge: Region 128 <-> Region 144
Added edge: Region 135 <-> Region 149
Added edge: Region 136 <-> Region 149
Added edge: Region 136 <-> Region 150
Added edge: Region 93 <-> Region 150
Added edge: Region 110 <-> Region 151
Added edge: Region 145 <-> Region 151
Added edge: Region 145 <-> Region 137
Added edge: Region 146 <-> Region 137
Added edge: Region 120 <-> Region 154
Added edge: Region 142 <-> Region 154
Added edge: Region 147 <-> Region 155
Added edge: Region 152 <-> Region 148
Added edge: Region 152 <-> Region 156
Added edge: Region 105 <-> Region 157
Added edge: Region 154 <-> Region 158
Added edge: Region 154 <-> Region 143
Added edge: Region 143 <-> Region 159
Added edge: Region 136 <-> Region 160
Added edge: Region 151 <-> Region 137
Added edge: Region 94 <-> Region 161
Added edge: Region 123 <-> Region 155
Added edge: Region 140 <-> Region 162
Added edge: Region 156 <-> Region 163
Added edge: Region 160 <-> Region 144
Added edge: Region 160 <-> Region 164
Added edge: Region 150 <-> Region 165
Added edge: Region 161 <-> Region 137
Added edge: Region 122 <-> Region 166
Added edge: Region 147 <-> Region 162
Added edge: Region 141 <-> Region 148
Added edge: Region 157 <-> Region 167
Added edge: Region 143 <-> Region 169
Added edge: Region 94 <-> Region 170
Added edge: Region 167 <-> Region 163
Added edge: Region 157 <-> Region 171
Added edge: Region 168 <-> Region 169
Added edge: Region 169 <-> Region 172
Added edge: Region 107 <-> Region 173
Added edge: Region 144 <-> Region 174
Added edge: Region 164 <-> Region 174
Added edge: Region 165 <-> Region 164
Added edge: Region 151 <-> Region 175
Added edge: Region 170 <-> Region 161
Added edge: Region 170 <-> Region 176
Added edge: Region 94 <-> Region 176
Added edge: Region 166 <-> Region 177
Added edge: Region 148 <-> Region 178
Added edge: Region 171 <-> Region 179
Added edge: Region 150 <-> Region 175
Added edge: Region 176 <-> Region 161
Added edge: Region 176 <-> Region 180
Added edge: Region 94 <-> Region 180
Added edge: Region 148 <-> Region 182
Added edge: Region 163 <-> Region 182
Added edge: Region 167 <-> Region 179
Added edge: Region 169 <-> Region 184
Added edge: Region 134 <-> Region 173
Added edge: Region 175 <-> Region 186
Added edge: Region 137 <-> Region 186
Added edge: Region 167 <-> Region 189
Added edge: Region 179 <-> Region 189
Added edge: Region 179 <-> Region 190
Added edge: Region 183 <-> Region 190
Added edge: Region 183 <-> Region 184
Added edge: Region 172 <-> Region 191
Added edge: Region 173 <-> Region 192
Added edge: Region 165 <-> Region 193
Added edge: Region 185 <-> Region 193
Added edge: Region 185 <-> Region 194
Added edge: Region 175 <-> Region 194
Added edge: Region 180 <-> Region 161
Added edge: Region 138 <-> Region 181
Added edge: Region 187 <-> Region 181
Added edge: Region 123 <-> Region 196
Added edge: Region 155 <-> Region 197
Added edge: Region 178 <-> Region 188
Added edge: Region 182 <-> Region 188
Added edge: Region 189 <-> Region 190
Added edge: Region 184 <-> Region 191
Added edge: Region 144 <-> Region 192
Added edge: Region 155 <-> Region 198
Added edge: Region 162 <-> Region 197
Added edge: Region 186 <-> Region 199
Added edge: Region 180 <-> Region 200
Added edge: Region 131 <-> Region 200
Added edge: Region 196 <-> Region 198
Added edge: Region 163 <-> Region 188
Added edge: Region 163 <-> Region 201
Added edge: Region 189 <-> Region 201
Added edge: Region 127 <-> Region 202
Added edge: Region 127 <-> Region 134
Added edge: Region 193 <-> Region 194
Added edge: Region 194 <-> Region 199
Added edge: Region 196 <-> Region 203
Added edge: Region 197 <-> Region 204
Added edge: Region 201 <-> Region 205
Added edge: Region 190 <-> Region 205
Added edge: Region 190 <-> Region 206
Added edge: Region 164 <-> Region 207
Added edge: Region 161 <-> Region 208
Added edge: Region 138 <-> Region 209
Added edge: Region 181 <-> Region 210
Added edge: Region 195 <-> Region 210
Added edge: Region 203 <-> Region 195
Added edge: Region 163 <-> Region 211
Added edge: Region 134 <-> Region 212
Added edge: Region 174 <-> Region 213
Added edge: Region 174 <-> Region 214
Added edge: Region 193 <-> Region 207
Added edge: Region 208 <-> Region 186
Added edge: Region 161 <-> Region 215
Added edge: Region 180 <-> Region 215
Added edge: Region 200 <-> Region 209
Added edge: Region 203 <-> Region 216
Added edge: Region 198 <-> Region 216
Added edge: Region 198 <-> Region 204
Added edge: Region 204 <-> Region 217
Added edge: Region 188 <-> Region 218
Added edge: Region 205 <-> Region 219
Added edge: Region 206 <-> Region 219
Added edge: Region 206 <-> Region 191
Added edge: Region 192 <-> Region 213
Added edge: Region 215 <-> Region 208
Added edge: Region 211 <-> Region 188
Added edge: Region 207 <-> Region 214
Added edge: Region 200 <-> Region 220
Added edge: Region 211 <-> Region 221
Added edge: Region 201 <-> Region 221
Added edge: Region 191 <-> Region 222
Added edge: Region 212 <-> Region 224
Added edge: Region 208 <-> Region 225
Added edge: Region 209 <-> Region 226
Added edge: Region 217 <-> Region 227
Added edge: Region 211 <-> Region 228
Added edge: Region 221 <-> Region 229
Added edge: Region 205 <-> Region 229
Added edge: Region 191 <-> Region 230
Added edge: Region 192 <-> Region 233
Added edge: Region 225 <-> Region 199
Added edge: Region 220 <-> Region 234
Added edge: Region 226 <-> Region 234
Added edge: Region 226 <-> Region 235
Added edge: Region 209 <-> Region 235
Added edge: Region 195 <-> Region 236
Added edge: Region 216 <-> Region 236
Added edge: Region 216 <-> Region 237
Added edge: Region 217 <-> Region 238
Added edge: Region 228 <-> Region 239
Added edge: Region 229 <-> Region 240
Added edge: Region 205 <-> Region 240
Added edge: Region 223 <-> Region 241
Added edge: Region 224 <-> Region 231
Added edge: Region 233 <-> Region 232
Added edge: Region 213 <-> Region 243
Added edge: Region 207 <-> Region 244
Added edge: Region 194 <-> Region 244
Added edge: Region 220 <-> Region 245
Added edge: Region 218 <-> Region 246
Added edge: Region 218 <-> Region 247
Added edge: Region 239 <-> Region 248
Added edge: Region 240 <-> Region 248
Added edge: Region 219 <-> Region 230
Added edge: Region 231 <-> Region 232
Added edge: Region 242 <-> Region 232
Added edge: Region 242 <-> Region 243
Added edge: Region 214 <-> Region 250
Added edge: Region 225 <-> Region 245
Added edge: Region 248 <-> Region 252
Added edge: Region 219 <-> Region 252
Added edge: Region 230 <-> Region 253
Added edge: Region 222 <-> Region 254
Added edge: Region 232 <-> Region 255
Added edge: Region 243 <-> Region 255
Added edge: Region 243 <-> Region 249
Added edge: Region 250 <-> Region 249
Added edge: Region 199 <-> Region 258
Added edge: Region 245 <-> Region 251
Added edge: Region 236 <-> Region 259
Added edge: Region 237 <-> Region 259
Added edge: Region 246 <-> Region 260
Added edge: Region 218 <-> Region 260
Added edge: Region 222 <-> Region 253
Added edge: Region 235 <-> Region 261
Added edge: Region 238 <-> Region 262
Added edge: Region 257 <-> Region 256
Added edge: Region 257 <-> Region 258
Added edge: Region 251 <-> Region 265
Added edge: Region 235 <-> Region 266
Added edge: Region 209 <-> Region 266
Added edge: Region 237 <-> Region 238
Added edge: Region 247 <-> Region 267
Added edge: Region 248 <-> Region 267
Added edge: Region 252 <-> Region 268
Added edge: Region 263 <-> Region 269
Added edge: Region 253 <-> Region 269
Added edge: Region 250 <-> Region 271
Added edge: Region 264 <-> Region 265
Added edge: Region 269 <-> Region 274
Added edge: Region 255 <-> Region 275
Added edge: Region 249 <-> Region 275
Added edge: Region 256 <-> Region 271
Added edge: Region 258 <-> Region 276
Added edge: Region 264 <-> Region 277
Added edge: Region 272 <-> Region 265
Added edge: Region 268 <-> Region 274
Added edge: Region 269 <-> Region 280
Added edge: Region 256 <-> Region 276
Added edge: Region 278 <-> Region 272
Added edge: Region 279 <-> Region 278
Added edge: Region 279 <-> Region 282
Added edge: Region 210 <-> Region 285
Added edge: Region 273 <-> Region 286
Added edge: Region 247 <-> Region 287
Added edge: Region 267 <-> Region 288
Added edge: Region 281 <-> Region 280
Added edge: Region 281 <-> Region 289
Added edge: Region 271 <-> Region 290
Added edge: Region 271 <-> Region 291
Added edge: Region 258 <-> Region 292
Added edge: Region 277 <-> Region 292
Added edge: Region 277 <-> Region 265
Added edge: Region 282 <-> Region 278
Added edge: Region 259 <-> Region 295
Added edge: Region 287 <-> Region 286
Added edge: Region 287 <-> Region 296
Added edge: Region 231 <-> Region 297
Added edge: Region 291 <-> Region 290
Added edge: Region 258 <-> Region 298
Added edge: Region 292 <-> Region 298
Added edge: Region 284 <-> Region 285
Added edge: Region 285 <-> Region 293
Added edge: Region 295 <-> Region 294
Added edge: Region 262 <-> Region 301
Added edge: Region 252 <-> Region 288
Added edge: Region 231 <-> Region 303
Added edge: Region 232 <-> Region 303
Added edge: Region 249 <-> Region 290
Added edge: Region 276 <-> Region 304
Added edge: Region 293 <-> Region 294
Added edge: Region 300 <-> Region 299
Added edge: Region 301 <-> Region 305
Added edge: Region 303 <-> Region 255
Added edge: Region 290 <-> Region 304
Added edge: Region 258 <-> Region 309
Added edge: Region 298 <-> Region 309
Added edge: Region 298 <-> Region 310
Added edge: Region 284 <-> Region 311
Added edge: Region 306 <-> Region 307
Added edge: Region 268 <-> Region 312
Added edge: Region 270 <-> Region 297
Added edge: Region 276 <-> Region 314
Added edge: Region 309 <-> Region 310
Added edge: Region 278 <-> Region 311
Added edge: Region 307 <-> Region 315
Added edge: Region 308 <-> Region 315
Added edge: Region 258 <-> Region 319
Added edge: Region 265 <-> Region 310
Added edge: Region 295 <-> Region 299
Added edge: Region 308 <-> Region 320
Added edge: Region 316 <-> Region 321
Added edge: Region 317 <-> Region 321
Added edge: Region 297 <-> Region 323
Added edge: Region 255 <-> Region 324
Added edge: Region 290 <-> Region 325
Added edge: Region 314 <-> Region 304
Added edge: Region 258 <-> Region 326
Added edge: Region 319 <-> Region 326
Added edge: Region 319 <-> Region 310
Added edge: Region 293 <-> Region 329
Added edge: Region 299 <-> Region 330
Added edge: Region 305 <-> Region 331
Added edge: Region 312 <-> Region 332
Added edge: Region 321 <-> Region 333
Added edge: Region 318 <-> Region 322
Added edge: Region 275 <-> Region 325
Added edge: Region 304 <-> Region 334
Added edge: Region 258 <-> Region 314
Added edge: Region 326 <-> Region 310
Added edge: Region 272 <-> Region 335
Added edge: Region 327 <-> Region 335
Added edge: Region 327 <-> Region 336
Added edge: Region 328 <-> Region 337
Added edge: Region 312 <-> Region 339
Added edge: Region 321 <-> Region 340
Added edge: Region 333 <-> Region 340
Added edge: Region 333 <-> Region 318
Added edge: Region 323 <-> Region 324
Added edge: Region 325 <-> Region 334
Added edge: Region 258 <-> Region 341
Added edge: Region 258 <-> Region 342
Added edge: Region 335 <-> Region 336
Added edge: Region 294 <-> Region 343
Added edge: Region 315 <-> Region 344
Added edge: Region 320 <-> Region 344
Added edge: Region 341 <-> Region 314
Added edge: Region 341 <-> Region 346
Added edge: Region 258 <-> Region 346
Added edge: Region 342 <-> Region 310
Added edge: Region 272 <-> Region 336
Added edge: Region 336 <-> Region 337
Added edge: Region 331 <-> Region 347
Added edge: Region 331 <-> Region 348
Added edge: Region 320 <-> Region 349
Added edge: Region 332 <-> Region 350
Added edge: Region 332 <-> Region 351
Added edge: Region 340 <-> Region 318
Added edge: Region 314 <-> Region 334
Added edge: Region 346 <-> Region 314
Added edge: Region 346 <-> Region 352
Added edge: Region 258 <-> Region 352
Added edge: Region 343 <-> Region 353
Added edge: Region 343 <-> Region 354
Added edge: Region 295 <-> Region 330
Added edge: Region 324 <-> Region 355
Added edge: Region 314 <-> Region 356
Added edge: Region 258 <-> Region 357
Added edge: Region 272 <-> Region 358
Added edge: Region 337 <-> Region 353
Added edge: Region 295 <-> Region 359
Added edge: Region 330 <-> Region 360
Added edge: Region 347 <-> Region 361
Added edge: Region 344 <-> Region 362
Added edge: Region 350 <-> Region 363
Added edge: Region 351 <-> Region 363
Added edge: Region 275 <-> Region 355
Added edge: Region 357 <-> Region 310
Added edge: Region 358 <-> Region 336
Added edge: Region 359 <-> Region 365
Added edge: Region 348 <-> Region 366
Added edge: Region 349 <-> Region 362
Added edge: Region 356 <-> Region 334
Added edge: Region 361 <-> Region 368
Added edge: Region 361 <-> Region 369
Added edge: Region 349 <-> Region 370
Added edge: Region 355 <-> Region 372
Added edge: Region 310 <-> Region 373
Added edge: Region 368 <-> Region 376
Added edge: Region 371 <-> Region 377
Added edge: Region 372 <-> Region 378
Added edge: Region 355 <-> Region 379
Added edge: Region 275 <-> Region 379
Added edge: Region 352 <-> Region 380
Added edge: Region 353 <-> Region 374
Added edge: Region 375 <-> Region 382
Added edge: Region 363 <-> Region 384
Added edge: Region 318 <-> Region 385
Added edge: Region 372 <-> Region 386
Added edge: Region 379 <-> Region 386
Added edge: Region 380 <-> Region 356
Added edge: Region 383 <-> Region 387
Added edge: Region 362 <-> Region 388
Added edge: Region 370 <-> Region 388
Added edge: Region 384 <-> Region 385
Added edge: Region 386 <-> Region 378
Added edge: Region 386 <-> Region 390
Added edge: Region 275 <-> Region 390
Added edge: Region 373 <-> Region 391
Added edge: Region 310 <-> Region 392
Added edge: Region 265 <-> Region 393
Added edge: Region 358 <-> Region 393
Added edge: Region 387 <-> Region 395
Added edge: Region 387 <-> Region 396
Added edge: Region 363 <-> Region 370
Added edge: Region 390 <-> Region 378
Added edge: Region 275 <-> Region 397
Added edge: Region 392 <-> Region 391
Added edge: Region 394 <-> Region 398
Added edge: Region 394 <-> Region 395
Added edge: Region 396 <-> Region 395
Added edge: Region 362 <-> Region 399
Added edge: Region 385 <-> Region 400
Added edge: Region 322 <-> Region 400
Added edge: Region 397 <-> Region 401
Added edge: Region 275 <-> Region 401
Added edge: Region 275 <-> Region 402
Added edge: Region 325 <-> Region 402
Added edge: Region 374 <-> Region 403
Added edge: Region 356 <-> Region 405
Added edge: Region 353 <-> Region 406
Added edge: Region 403 <-> Region 407
Added edge: Region 403 <-> Region 408
Added edge: Region 395 <-> Region 409
Added edge: Region 404 <-> Region 410
Added edge: Region 388 <-> Region 410
Added edge: Region 401 <-> Region 411
Added edge: Region 275 <-> Region 411
Added edge: Region 275 <-> Region 412
Added edge: Region 402 <-> Region 412
Added edge: Region 402 <-> Region 334
Added edge: Region 391 <-> Region 405
Added edge: Region 406 <-> Region 413
Added edge: Region 395 <-> Region 415
Added edge: Region 410 <-> Region 417
Added edge: Region 388 <-> Region 418
Added edge: Region 411 <-> Region 420
Added edge: Region 310 <-> Region 391
Added edge: Region 353 <-> Region 413
Added edge: Region 398 <-> Region 409
Added edge: Region 417 <-> Region 416
Added edge: Region 417 <-> Region 421
Added edge: Region 418 <-> Region 421
Added edge: Region 388 <-> Region 422
Added edge: Region 363 <-> Region 423
Added edge: Region 412 <-> Region 334
Added edge: Region 409 <-> Region 425
Added edge: Region 415 <-> Region 425
Added edge: Region 422 <-> Region 421
Added edge: Region 388 <-> Region 426
Added edge: Region 420 <-> Region 378
Added edge: Region 275 <-> Region 427
Added edge: Region 393 <-> Region 428
Added edge: Region 336 <-> Region 428
Added edge: Region 337 <-> Region 429
Added edge: Region 413 <-> Region 430
Added edge: Region 424 <-> Region 430
Added edge: Region 424 <-> Region 408
Added edge: Region 408 <-> Region 431
Added edge: Region 421 <-> Region 416
Added edge: Region 426 <-> Region 421
Added edge: Region 427 <-> Region 334
Added edge: Region 334 <-> Region 433
Added edge: Region 405 <-> Region 433
Added edge: Region 429 <-> Region 413
Added edge: Region 413 <-> Region 435
Added edge: Region 430 <-> Region 435
Added edge: Region 430 <-> Region 408
Added edge: Region 398 <-> Region 431
Added edge: Region 432 <-> Region 421
Added edge: Region 429 <-> Region 438
Added edge: Region 435 <-> Region 408
Added edge: Region 416 <-> Region 440
Added edge: Region 416 <-> Region 441
Added edge: Region 421 <-> Region 441
Added edge: Region 423 <-> Region 385
Added edge: Region 434 <-> Region 442
Added edge: Region 393 <-> Region 443
Added edge: Region 393 <-> Region 444
Added edge: Region 437 <-> Region 444
Added edge: Region 437 <-> Region 429
Added edge: Region 429 <-> Region 445
Added edge: Region 438 <-> Region 445
Added edge: Region 438 <-> Region 413
Added edge: Region 431 <-> Region 446
Added edge: Region 439 <-> Region 425
Added edge: Region 441 <-> Region 440
Added edge: Region 400 <-> Region 448
Added edge: Region 434 <-> Region 391
Added edge: Region 443 <-> Region 442
Added edge: Region 443 <-> Region 449
Added edge: Region 393 <-> Region 449
Added edge: Region 393 <-> Region 450
Added edge: Region 435 <-> Region 451
Added edge: Region 378 <-> Region 453
Added edge: Region 449 <-> Region 442
Added edge: Region 450 <-> Region 444
Added edge: Region 444 <-> Region 454
Added edge: Region 429 <-> Region 454
Added edge: Region 451 <-> Region 408
Added edge: Region 408 <-> Region 456
Added edge: Region 439 <-> Region 446
Added edge: Region 421 <-> Region 457
Added edge: Region 447 <-> Region 457
Added edge: Region 400 <-> Region 459
Added edge: Region 448 <-> Region 460
Added edge: Region 334 <-> Region 462
Added edge: Region 391 <-> Region 463
Added edge: Region 455 <-> Region 465
Added edge: Region 455 <-> Region 451
Added edge: Region 421 <-> Region 466
Added edge: Region 452 <-> Region 467
Added edge: Region 458 <-> Region 468
Added edge: Region 459 <-> Region 468
Added edge: Region 400 <-> Region 469
Added edge: Region 450 <-> Region 464
Added edge: Region 454 <-> Region 471
Added edge: Region 445 <-> Region 472
Added edge: Region 465 <-> Region 473
Added edge: Region 451 <-> Region 473
Added edge: Region 466 <-> Region 440
Added edge: Region 466 <-> Region 474
Added edge: Region 421 <-> Region 474
Added edge: Region 467 <-> Region 457
Added edge: Region 452 <-> Region 475
Added edge: Region 469 <-> Region 468
Added edge: Region 462 <-> Region 476
Added edge: Region 442 <-> Region 470
Added edge: Region 464 <-> Region 470
Added edge: Region 444 <-> Region 477
Added edge: Region 471 <-> Region 478
Added edge: Region 472 <-> Region 478
Added edge: Region 473 <-> Region 479
Added edge: Region 473 <-> Region 408
Added edge: Region 474 <-> Region 440
Added edge: Region 475 <-> Region 468
Added edge: Region 400 <-> Region 480
Added edge: Region 477 <-> Region 478
Added edge: Region 479 <-> Region 408
Added edge: Region 456 <-> Region 446
Added edge: Region 480 <-> Region 468
Added edge: Region 420 <-> Region 476
Added edge: Region 463 <-> Region 482
Added edge: Region 444 <-> Region 483
Added edge: Region 408 <-> Region 484
Added edge: Region 457 <-> Region 485
Added edge: Region 478 <-> Region 488
Added edge: Region 484 <-> Region 489
Added edge: Region 484 <-> Region 456
Added edge: Region 474 <-> Region 485
Added edge: Region 378 <-> Region 481
Added edge: Region 334 <-> Region 490
Added edge: Region 478 <-> Region 491
Added edge: Region 478 <-> Region 492
Added edge: Region 488 <-> Region 492
Added edge: Region 489 <-> Region 493
Added edge: Region 446 <-> Region 494
Added edge: Region 425 <-> Region 494
Added edge: Region 468 <-> Region 486
Added edge: Region 490 <-> Region 433
Added edge: Region 470 <-> Region 482
Added edge: Region 487 <-> Region 491
Added edge: Region 492 <-> Region 496
Added edge: Region 405 <-> Region 495
Added edge: Region 482 <-> Region 495
Added edge: Region 487 <-> Region 498
Added edge: Region 456 <-> Region 493
Added edge: Region 433 <-> Region 499
Added edge: Region 493 <-> Region 501
Added edge: Region 440 <-> Region 502
Added edge: Region 485 <-> Region 502
Added edge: Region 485 <-> Region 503
Added edge: Region 378 <-> Region 505
Added edge: Region 433 <-> Region 506
Added edge: Region 433 <-> Region 507
Added edge: Region 499 <-> Region 508
Added edge: Region 495 <-> Region 508
Added edge: Region 500 <-> Region 501
Added edge: Region 493 <-> Region 510
Added edge: Region 456 <-> Region 510
Added edge: Region 468 <-> Region 511
Added edge: Region 486 <-> Region 512
Added edge: Region 461 <-> Region 481
Added edge: Region 507 <-> Region 508
Added edge: Region 470 <-> Region 514
Added edge: Region 509 <-> Region 498
Added edge: Region 510 <-> Region 501
Added edge: Region 511 <-> Region 515
Added edge: Region 511 <-> Region 516
Added edge: Region 468 <-> Region 516
Added edge: Region 486 <-> Region 517
Added edge: Region 512 <-> Region 517
Added edge: Region 476 <-> Region 518
Added edge: Region 506 <-> Region 519
Added edge: Region 470 <-> Region 520
Added edge: Region 514 <-> Region 509
Added edge: Region 498 <-> Region 521
Added edge: Region 500 <-> Region 522
Added edge: Region 456 <-> Region 501
Added edge: Region 503 <-> Region 504
Added edge: Region 515 <-> Region 504
Added edge: Region 505 <-> Region 481
Added edge: Region 507 <-> Region 519
Added edge: Region 470 <-> Region 524
Added edge: Region 520 <-> Region 524
Added edge: Region 520 <-> Region 509
Added edge: Region 521 <-> Region 526
Added edge: Region 516 <-> Region 527
Added edge: Region 476 <-> Region 529
Added edge: Region 519 <-> Region 523
Added edge: Region 524 <-> Region 509
Added edge: Region 525 <-> Region 530
Added edge: Region 525 <-> Region 531
Added edge: Region 526 <-> Region 531
Added edge: Region 526 <-> Region 532
Added edge: Region 501 <-> Region 533
Added edge: Region 456 <-> Region 534
Added edge: Region 440 <-> Region 425
Added edge: Region 516 <-> Region 535
Added edge: Region 486 <-> Region 535
Added edge: Region 486 <-> Region 536
Added edge: Region 528 <-> Region 513
Added edge: Region 420 <-> Region 537
Added edge: Region 476 <-> Region 538
Added edge: Region 529 <-> Region 539
Added edge: Region 529 <-> Region 523
Added edge: Region 519 <-> Region 540
Added edge: Region 508 <-> Region 540
Added edge: Region 509 <-> Region 541
Added edge: Region 531 <-> Region 542
Added edge: Region 532 <-> Region 542
Added edge: Region 532 <-> Region 522
Added edge: Region 522 <-> Region 533
Added edge: Region 536 <-> Region 543
Added edge: Region 537 <-> Region 476
Added edge: Region 540 <-> Region 544
Added edge: Region 524 <-> Region 545
Added edge: Region 541 <-> Region 546
Added edge: Region 534 <-> Region 501
Added edge: Region 502 <-> Region 547
Added edge: Region 503 <-> Region 547
Added edge: Region 535 <-> Region 548
Added edge: Region 543 <-> Region 513
Added edge: Region 538 <-> Region 549
Added edge: Region 539 <-> Region 549
Added edge: Region 539 <-> Region 523
Added edge: Region 523 <-> Region 544
Added edge: Region 482 <-> Region 550
Added edge: Region 524 <-> Region 550
Added edge: Region 545 <-> Region 541
Added edge: Region 546 <-> Region 542
Added edge: Region 542 <-> Region 522
Added edge: Region 446 <-> Region 551
Added edge: Region 527 <-> Region 504
Added edge: Region 513 <-> Region 497
Added edge: Region 378 <-> Region 552
Added edge: Region 527 <-> Region 553
Added edge: Region 535 <-> Region 553
Added edge: Region 548 <-> Region 554
Added edge: Region 513 <-> Region 555
Added edge: Region 549 <-> Region 523
Added edge: Region 541 <-> Region 556
Added edge: Region 548 <-> Region 557
Added edge: Region 554 <-> Region 557
Added edge: Region 497 <-> Region 558
Added edge: Region 378 <-> Region 560
Added edge: Region 552 <-> Region 560
Added edge: Region 538 <-> Region 561
Added edge: Region 549 <-> Region 561
Added edge: Region 495 <-> Region 562
Added edge: Region 550 <-> Region 563
Added edge: Region 541 <-> Region 564
Added edge: Region 556 <-> Region 564
Added edge: Region 556 <-> Region 565
Added edge: Region 494 <-> Region 566
Added edge: Region 553 <-> Region 567
Added edge: Region 548 <-> Region 567
Added edge: Region 558 <-> Region 568
Added edge: Region 541 <-> Region 563
Added edge: Region 564 <-> Region 570
Added edge: Region 565 <-> Region 570
Added edge: Region 565 <-> Region 542
Added edge: Region 534 <-> Region 551
Added edge: Region 504 <-> Region 571
Added edge: Region 553 <-> Region 571
Added edge: Region 548 <-> Region 572
Added edge: Region 557 <-> Region 572
Added edge: Region 561 <-> Region 574
Added edge: Region 523 <-> Region 574
Added edge: Region 562 <-> Region 575
Added edge: Region 504 <-> Region 576
Added edge: Region 555 <-> Region 577
Added edge: Region 378 <-> Region 578
Added edge: Region 573 <-> Region 569
Added edge: Region 538 <-> Region 569
Added edge: Region 574 <-> Region 544
Added edge: Region 540 <-> Region 579
Added edge: Region 562 <-> Region 580
Added edge: Region 575 <-> Region 581
Added edge: Region 541 <-> Region 582
Added edge: Region 547 <-> Region 576
Added edge: Region 504 <-> Region 583
Added edge: Region 571 <-> Region 583
Added edge: Region 578 <-> Region 573
Added edge: Region 561 <-> Region 544
Added edge: Region 580 <-> Region 581
Added edge: Region 563 <-> Region 581
Added edge: Region 582 <-> Region 570
Added edge: Region 570 <-> Region 542
Added edge: Region 551 <-> Region 566
Added edge: Region 425 <-> Region 585
Added edge: Region 504 <-> Region 586
Added edge: Region 583 <-> Region 586
Added edge: Region 583 <-> Region 587
Added edge: Region 567 <-> Region 588
Added edge: Region 555 <-> Region 589
Added edge: Region 505 <-> Region 590
Added edge: Region 544 <-> Region 591
Added edge: Region 581 <-> Region 593
Added edge: Region 551 <-> Region 594
Added edge: Region 425 <-> Region 595
Added edge: Region 586 <-> Region 587
Added edge: Region 567 <-> Region 587
Added edge: Region 589 <-> Region 577
Added edge: Region 578 <-> Region 590
Added edge: Region 544 <-> Region 597
Added edge: Region 591 <-> Region 597
Added edge: Region 591 <-> Region 598
Added edge: Region 592 <-> Region 598
Added edge: Region 584 <-> Region 593
Added edge: Region 581 <-> Region 599
Added edge: Region 563 <-> Region 599
Added edge: Region 563 <-> Region 600
Added edge: Region 570 <-> Region 601
Added edge: Region 585 <-> Region 566
Added edge: Region 481 <-> Region 602
Added edge: Region 596 <-> Region 603
Added edge: Region 596 <-> Region 544
Added edge: Region 544 <-> Region 604
Added edge: Region 597 <-> Region 598
Added edge: Region 599 <-> Region 593
Added edge: Region 600 <-> Region 601
Added edge: Region 587 <-> Region 608
Added edge: Region 577 <-> Region 568
Added edge: Region 568 <-> Region 610
Added edge: Region 590 <-> Region 602
Added edge: Region 544 <-> Region 611
Added edge: Region 604 <-> Region 598
Added edge: Region 598 <-> Region 605
Added edge: Region 585 <-> Region 607
Added edge: Region 502 <-> Region 612
Added edge: Region 577 <-> Region 609
Added edge: Region 603 <-> Region 544
Added edge: Region 544 <-> Region 614
Added edge: Region 611 <-> Region 598
Added edge: Region 593 <-> Region 615
Added edge: Region 547 <-> Region 617
Added edge: Region 613 <-> Region 602
Added edge: Region 538 <-> Region 618
Added edge: Region 544 <-> Region 619
Added edge: Region 614 <-> Region 598
Added edge: Region 538 <-> Region 622
Added edge: Region 618 <-> Region 622
Added edge: Region 618 <-> Region 603
Added edge: Region 619 <-> Region 598
Added edge: Region 615 <-> Region 605
Added edge: Region 616 <-> Region 623
Added edge: Region 620 <-> Region 616
Added edge: Region 620 <-> Region 624
Added edge: Region 533 <-> Region 606
Added edge: Region 566 <-> Region 626
Added edge: Region 612 <-> Region 627
Added edge: Region 547 <-> Region 627
Added edge: Region 626 <-> Region 625
Added edge: Region 626 <-> Region 629
Added edge: Region 566 <-> Region 629
Added edge: Region 590 <-> Region 631
Added edge: Region 569 <-> Region 632
Added edge: Region 622 <-> Region 603
Added edge: Region 623 <-> Region 633
Added edge: Region 628 <-> Region 634
Added edge: Region 542 <-> Region 634
Added edge: Region 606 <-> Region 625
Added edge: Region 629 <-> Region 625
Added edge: Region 629 <-> Region 635
Added edge: Region 566 <-> Region 635
Added edge: Region 573 <-> Region 631
Added edge: Region 622 <-> Region 632
Added edge: Region 566 <-> Region 636
Added edge: Region 607 <-> Region 636
Added edge: Region 577 <-> Region 637
Added edge: Region 522 <-> Region 638
Added edge: Region 635 <-> Region 625
Added edge: Region 627 <-> Region 639
Added edge: Region 608 <-> Region 640
Added edge: Region 630 <-> Region 641
Added edge: Region 632 <-> Region 642
Added edge: Region 603 <-> Region 642
Added edge: Region 544 <-> Region 598
Added edge: Region 605 <-> Region 633
Added edge: Region 641 <-> Region 644
Added edge: Region 637 <-> Region 645
Added edge: Region 637 <-> Region 610
Added edge: Region 634 <-> Region 646
Added edge: Region 634 <-> Region 638
Added edge: Region 533 <-> Region 647
Added edge: Region 636 <-> Region 648
Added edge: Region 640 <-> Region 643
Added edge: Region 630 <-> Region 649
Added edge: Region 630 <-> Region 650
Added edge: Region 609 <-> Region 645
Added edge: Region 631 <-> Region 651
Added edge: Region 569 <-> Region 651
Added edge: Region 623 <-> Region 652
Added edge: Region 635 <-> Region 648
Added edge: Region 612 <-> Region 607
Added edge: Region 643 <-> Region 649
Added edge: Region 638 <-> Region 653
Added edge: Region 638 <-> Region 647
Added edge: Region 627 <-> Region 654
Added edge: Region 639 <-> Region 655
Added edge: Region 649 <-> Region 656
Added edge: Region 644 <-> Region 657
Added edge: Region 631 <-> Region 658
Added edge: Region 651 <-> Region 658
Added edge: Region 651 <-> Region 659
Added edge: Region 632 <-> Region 659
Added edge: Region 646 <-> Region 653
Added edge: Region 627 <-> Region 660
Added edge: Region 654 <-> Region 660
Added edge: Region 639 <-> Region 661
Added edge: Region 655 <-> Region 661
Added edge: Region 655 <-> Region 643
Added edge: Region 649 <-> Region 662
Added edge: Region 656 <-> Region 662
Added edge: Region 656 <-> Region 657
Added edge: Region 610 <-> Region 663
Added edge: Region 658 <-> Region 659
Added edge: Region 642 <-> Region 664
Added edge: Region 544 <-> Region 664
Added edge: Region 647 <-> Region 665
Added edge: Region 625 <-> Region 666
Added edge: Region 607 <-> Region 667
Added edge: Region 627 <-> Region 668
Added edge: Region 660 <-> Region 668
Added edge: Region 642 <-> Region 669
Added edge: Region 664 <-> Region 669
Added edge: Region 653 <-> Region 665
Added edge: Region 648 <-> Region 666
Added edge: Region 667 <-> Region 648
Added edge: Region 627 <-> Region 671
Added edge: Region 668 <-> Region 671
Added edge: Region 645 <-> Region 672
Added edge: Region 598 <-> Region 673
Added edge: Region 667 <-> Region 674
Added edge: Region 627 <-> Region 675
Added edge: Region 671 <-> Region 675
Added edge: Region 662 <-> Region 657
Added edge: Region 645 <-> Region 676
Added edge: Region 631 <-> Region 677
Added edge: Region 653 <-> Region 678
Added edge: Region 627 <-> Region 679
Added edge: Region 627 <-> Region 680
Added edge: Region 675 <-> Region 680
Added edge: Region 676 <-> Region 672
Added edge: Region 676 <-> Region 681
Added edge: Region 645 <-> Region 681
Added edge: Region 677 <-> Region 659
Added edge: Region 642 <-> Region 682
Added edge: Region 657 <-> Region 683
Added edge: Region 672 <-> Region 683
Added edge: Region 681 <-> Region 672
Added edge: Region 681 <-> Region 686
Added edge: Region 663 <-> Region 686
Added edge: Region 602 <-> Region 687
Added edge: Region 684 <-> Region 688
Added edge: Region 648 <-> Region 689
Added edge: Region 685 <-> Region 690
Added edge: Region 661 <-> Region 690
Added edge: Region 659 <-> Region 692
Added edge: Region 633 <-> Region 693
Added edge: Region 652 <-> Region 693
Added edge: Region 652 <-> Region 694
Added edge: Region 678 <-> Region 695
Added edge: Region 665 <-> Region 695
Added edge: Region 659 <-> Region 696
Added edge: Region 692 <-> Region 696
Added edge: Region 692 <-> Region 697
Added edge: Region 688 <-> Region 673
Added edge: Region 678 <-> Region 694
Added edge: Region 674 <-> Region 689
Added edge: Region 661 <-> Region 698
Added edge: Region 687 <-> Region 699
Added edge: Region 677 <-> Region 691
Added edge: Region 659 <-> Region 700
Added edge: Region 696 <-> Region 700
Added edge: Region 696 <-> Region 701
Added edge: Region 688 <-> Region 697
Added edge: Region 666 <-> Region 702
Added edge: Region 689 <-> Region 702
Added edge: Region 698 <-> Region 704
Added edge: Region 699 <-> Region 705
Added edge: Region 691 <-> Region 705
Added edge: Region 659 <-> Region 706
Added edge: Region 700 <-> Region 706
Added edge: Region 700 <-> Region 707
Added edge: Region 701 <-> Region 707
Added edge: Region 701 <-> Region 697
Added edge: Region 606 <-> Region 708
Added edge: Region 706 <-> Region 707
Added edge: Region 707 <-> Region 697
Added edge: Region 666 <-> Region 709
Added edge: Region 702 <-> Region 709
Added edge: Region 702 <-> Region 710
Added edge: Region 690 <-> Region 704
Added edge: Region 686 <-> Region 713
Added edge: Region 709 <-> Region 714
Added edge: Region 710 <-> Region 714
Added edge: Region 710 <-> Region 715
Added edge: Region 711 <-> Region 715
Added edge: Region 711 <-> Region 716
Added edge: Region 703 <-> Region 716
Added edge: Region 712 <-> Region 717
Added edge: Region 662 <-> Region 717
Added edge: Region 705 <-> Region 718
Added edge: Region 697 <-> Region 719
Added edge: Region 673 <-> Region 719
Added edge: Region 673 <-> Region 720
Added edge: Region 695 <-> Region 721
Added edge: Region 625 <-> Region 722
Added edge: Region 666 <-> Region 723
Added edge: Region 714 <-> Region 723
Added edge: Region 714 <-> Region 715
Added edge: Region 716 <-> Region 715
Added edge: Region 605 <-> Region 720
Added edge: Region 693 <-> Region 724
Added edge: Region 694 <-> Region 724
Added edge: Region 694 <-> Region 721
Added edge: Region 708 <-> Region 725
Added edge: Region 708 <-> Region 722
Added edge: Region 722 <-> Region 726
Added edge: Region 666 <-> Region 726
Added edge: Region 723 <-> Region 715
Added edge: Region 717 <-> Region 727
Added edge: Region 657 <-> Region 727
Added edge: Region 672 <-> Region 713
Added edge: Region 707 <-> Region 728
Added edge: Region 723 <-> Region 729
Added edge: Region 728 <-> Region 730
Added edge: Region 666 <-> Region 731
Added edge: Region 729 <-> Region 732
Added edge: Region 729 <-> Region 715
Added edge: Region 715 <-> Region 733
Added edge: Region 727 <-> Region 734
Added edge: Region 683 <-> Region 734
Added edge: Region 699 <-> Region 735
Added edge: Region 718 <-> Region 736
Added edge: Region 665 <-> Region 725
Added edge: Region 732 <-> Region 715
Added edge: Region 726 <-> Region 737
Added edge: Region 690 <-> Region 738
Added edge: Region 736 <-> Region 730
Added edge: Region 697 <-> Region 739
Added edge: Region 724 <-> Region 741
Added edge: Region 726 <-> Region 742
Added edge: Region 728 <-> Region 739
Added edge: Region 719 <-> Region 743
Added edge: Region 633 <-> Region 740
Added edge: Region 721 <-> Region 741
Added edge: Region 742 <-> Region 744
Added edge: Region 715 <-> Region 744
Added edge: Region 704 <-> Region 745
Added edge: Region 713 <-> Region 746
Added edge: Region 720 <-> Region 743
Added edge: Region 720 <-> Region 740
Added edge: Region 704 <-> Region 747
Added edge: Region 745 <-> Region 717
Added edge: Region 719 <-> Region 748
Added edge: Region 737 <-> Region 749
Added edge: Region 742 <-> Region 749
Added edge: Region 704 <-> Region 750
Added edge: Region 717 <-> Region 751
Added edge: Region 727 <-> Region 751
Added edge: Region 739 <-> Region 748
Added edge: Region 744 <-> Region 752
Added edge: Region 733 <-> Region 752
Added edge: Region 725 <-> Region 753
Added edge: Region 744 <-> Region 754
Added edge: Region 733 <-> Region 755
Added edge: Region 717 <-> Region 756
Added edge: Region 751 <-> Region 756
Added edge: Region 751 <-> Region 734
Added edge: Region 748 <-> Region 757
Added edge: Region 743 <-> Region 757
Added edge: Region 756 <-> Region 734
Added edge: Region 736 <-> Region 758
Added edge: Region 749 <-> Region 759
Added edge: Region 755 <-> Region 760
Added edge: Region 747 <-> Region 761
Added edge: Region 736 <-> Region 763
Added edge: Region 730 <-> Region 764
Added edge: Region 739 <-> Region 765
Added edge: Region 748 <-> Region 765
Added edge: Region 740 <-> Region 766
Added edge: Region 695 <-> Region 767
Added edge: Region 665 <-> Region 768
Added edge: Region 725 <-> Region 768
Added edge: Region 749 <-> Region 769
Added edge: Region 759 <-> Region 769
Added edge: Region 759 <-> Region 754
Added edge: Region 754 <-> Region 770
Added edge: Region 752 <-> Region 770
Added edge: Region 752 <-> Region 760
Added edge: Region 746 <-> Region 771
Added edge: Region 763 <-> Region 772
Added edge: Region 763 <-> Region 773
Added edge: Region 739 <-> Region 774
Added edge: Region 765 <-> Region 774
Added edge: Region 765 <-> Region 757
Added edge: Region 767 <-> Region 741
Added edge: Region 749 <-> Region 775
Added edge: Region 769 <-> Region 775
Added edge: Region 769 <-> Region 754
Added edge: Region 773 <-> Region 772
Added edge: Region 773 <-> Region 777
Added edge: Region 730 <-> Region 777
Added edge: Region 774 <-> Region 757
Added edge: Region 766 <-> Region 778
Added edge: Region 768 <-> Region 753
Added edge: Region 761 <-> Region 779
Added edge: Region 734 <-> Region 780
Added edge: Region 777 <-> Region 782
Added edge: Region 753 <-> Region 783
Added edge: Region 775 <-> Region 754
Added edge: Region 760 <-> Region 784
Added edge: Region 771 <-> Region 781
Added edge: Region 771 <-> Region 785
Added edge: Region 772 <-> Region 786
Added edge: Region 777 <-> Region 786
Added edge: Region 770 <-> Region 784
Added edge: Region 757 <-> Region 787
Added edge: Region 783 <-> Region 749
Added edge: Region 779 <-> Region 788
Added edge: Region 786 <-> Region 792
Added edge: Region 782 <-> Region 792
Added edge: Region 734 <-> Region 789
Added edge: Region 734 <-> Region 793
Added edge: Region 790 <-> Region 791
Added edge: Region 778 <-> Region 794
Added edge: Region 734 <-> Region 797
Added edge: Region 793 <-> Region 798
Added edge: Region 785 <-> Region 791
Added edge: Region 792 <-> Region 799
Added edge: Region 740 <-> Region 778
Added edge: Region 787 <-> Region 801
Added edge: Region 787 <-> Region 802
Added edge: Region 800 <-> Region 803
Added edge: Region 800 <-> Region 783
Added edge: Region 784 <-> Region 804
Added edge: Region 789 <-> Region 806
Added edge: Region 793 <-> Region 807
Added edge: Region 799 <-> Region 808
Added edge: Region 802 <-> Region 794
Added edge: Region 740 <-> Region 809
Added edge: Region 795 <-> Region 810
Added edge: Region 807 <-> Region 806
Added edge: Region 801 <-> Region 808
Added edge: Region 695 <-> Region 811
Added edge: Region 784 <-> Region 812
Added edge: Region 804 <-> Region 812
Added edge: Region 810 <-> Region 813
Added edge: Region 806 <-> Region 814
Added edge: Region 794 <-> Region 816
Added edge: Region 809 <-> Region 817
Added edge: Region 740 <-> Region 817
Added edge: Region 695 <-> Region 818
Added edge: Region 812 <-> Region 819
Added edge: Region 815 <-> Region 816
Added edge: Region 817 <-> Region 821
Added edge: Region 811 <-> Region 822
Added edge: Region 803 <-> Region 822
Added edge: Region 770 <-> Region 823
Added edge: Region 784 <-> Region 823
Added edge: Region 784 <-> Region 824
Added edge: Region 819 <-> Region 825
Added edge: Region 820 <-> Region 813
Added edge: Region 772 <-> Region 826
Added edge: Region 821 <-> Region 794
Added edge: Region 821 <-> Region 827
Added edge: Region 818 <-> Region 741
Added edge: Region 818 <-> Region 828
Added edge: Region 695 <-> Region 828
Added edge: Region 803 <-> Region 783
Added edge: Region 823 <-> Region 824
Added edge: Region 824 <-> Region 825
Added edge: Region 825 <-> Region 829
Added edge: Region 806 <-> Region 830
Added edge: Region 807 <-> Region 830
Added edge: Region 826 <-> Region 799
Added edge: Region 799 <-> Region 831
Added edge: Region 808 <-> Region 831
Added edge: Region 808 <-> Region 832
Added edge: Region 783 <-> Region 775
Added edge: Region 770 <-> Region 834
Added edge: Region 830 <-> Region 814
Added edge: Region 807 <-> Region 835
Added edge: Region 798 <-> Region 835
Added edge: Region 798 <-> Region 791
Added edge: Region 799 <-> Region 836
Added edge: Region 831 <-> Region 836
Added edge: Region 831 <-> Region 837
Added edge: Region 832 <-> Region 837
Added edge: Region 832 <-> Region 833
Added edge: Region 827 <-> Region 794
Added edge: Region 740 <-> Region 838
Added edge: Region 770 <-> Region 839
Added edge: Region 834 <-> Region 839
Added edge: Region 834 <-> Region 824
Added edge: Region 837 <-> Region 833
Added edge: Region 838 <-> Region 827
Added edge: Region 838 <-> Region 840
Added edge: Region 783 <-> Region 841
Added edge: Region 839 <-> Region 824
Added edge: Region 814 <-> Region 842
Added edge: Region 807 <-> Region 814
Added edge: Region 791 <-> Region 843
Added edge: Region 799 <-> Region 844
Added edge: Region 816 <-> Region 833
Added edge: Region 840 <-> Region 827
Added edge: Region 633 <-> Region 845
Added edge: Region 693 <-> Region 846
Added edge: Region 724 <-> Region 846
Added edge: Region 828 <-> Region 741
Added edge: Region 828 <-> Region 847
Added edge: Region 811 <-> Region 847
Added edge: Region 822 <-> Region 848
Added edge: Region 783 <-> Region 848
Added edge: Region 775 <-> Region 849
Added edge: Region 824 <-> Region 851
Added edge: Region 825 <-> Region 851
Added edge: Region 807 <-> Region 852
Added edge: Region 844 <-> Region 833
Added edge: Region 849 <-> Region 853
Added edge: Region 849 <-> Region 850
Added edge: Region 851 <-> Region 829
Added edge: Region 852 <-> Region 814
Added edge: Region 785 <-> Region 854
Added edge: Region 840 <-> Region 855
Added edge: Region 845 <-> Region 855
Added edge: Region 741 <-> Region 856
Added edge: Region 848 <-> Region 857
Added edge: Region 853 <-> Region 850
Added edge: Region 850 <-> Region 839
Added edge: Region 824 <-> Region 859
Added edge: Region 829 <-> Region 860
Added edge: Region 813 <-> Region 860
Added edge: Region 835 <-> Region 861
Added edge: Region 799 <-> Region 862
Added edge: Region 855 <-> Region 827
Added edge: Region 693 <-> Region 863
Added edge: Region 846 <-> Region 863
Added edge: Region 846 <-> Region 741
Added edge: Region 822 <-> Region 864
Added edge: Region 824 <-> Region 865
Added edge: Region 859 <-> Region 865
Added edge: Region 859 <-> Region 829
Added edge: Region 814 <-> Region 866
Added edge: Region 861 <-> Region 866
Added edge: Region 799 <-> Region 867
Added edge: Region 862 <-> Region 867
Added edge: Region 693 <-> Region 868
Added edge: Region 858 <-> Region 857
Added edge: Region 865 <-> Region 829
Added edge: Region 813 <-> Region 842
Added edge: Region 799 <-> Region 870
Added edge: Region 867 <-> Region 870
Added edge: Region 845 <-> Region 827
Added edge: Region 863 <-> Region 741
Added edge: Region 847 <-> Region 871
Added edge: Region 870 <-> Region 873
Added edge: Region 845 <-> Region 868
Added edge: Region 741 <-> Region 875
Added edge: Region 856 <-> Region 876
Added edge: Region 864 <-> Region 877
Added edge: Region 843 <-> Region 878
Added edge: Region 869 <-> Region 879
Added edge: Region 872 <-> Region 880
Added edge: Region 873 <-> Region 880
Added edge: Region 873 <-> Region 833
Added edge: Region 845 <-> Region 881
Added edge: Region 874 <-> Region 882
Added edge: Region 741 <-> Region 882
Added edge: Region 875 <-> Region 876
Added edge: Region 871 <-> Region 883
Added edge: Region 864 <-> Region 883
Added edge: Region 861 <-> Region 878
Added edge: Region 843 <-> Region 879
Added edge: Region 868 <-> Region 884
Added edge: Region 853 <-> Region 885
Added edge: Region 880 <-> Region 833
Added edge: Region 881 <-> Region 827
Added edge: Region 884 <-> Region 882
Added edge: Region 877 <-> Region 857
Added edge: Region 824 <-> Region 829
Added edge: Region 880 <-> Region 887
Added edge: Region 868 <-> Region 888
Added edge: Region 882 <-> Region 889
Added edge: Region 886 <-> Region 889
Added edge: Region 857 <-> Region 885
Added edge: Region 879 <-> Region 890
Added edge: Region 889 <-> Region 891
Added edge: Region 876 <-> Region 891
Added edge: Region 876 <-> Region 892
Added edge: Region 883 <-> Region 893
Added edge: Region 877 <-> Region 893
Added edge: Region 885 <-> Region 894
Added edge: Region 890 <-> Region 895
Added edge: Region 868 <-> Region 897
Added edge: Region 878 <-> Region 898
Added edge: Region 827 <-> Region 899
Added edge: Region 885 <-> Region 902
Added edge: Region 894 <-> Region 902
Added edge: Region 894 <-> Region 903
Added edge: Region 839 <-> Region 903
Added edge: Region 866 <-> Region 904
Added edge: Region 833 <-> Region 905
Added edge: Region 899 <-> Region 816
Added edge: Region 899 <-> Region 906
Added edge: Region 827 <-> Region 906
Added edge: Region 900 <-> Region 907
Added edge: Region 901 <-> Region 889
Added edge: Region 892 <-> Region 908
Added edge: Region 883 <-> Region 908
Added edge: Region 898 <-> Region 909
Added edge: Region 905 <-> Region 910
Added edge: Region 833 <-> Region 911
Added edge: Region 827 <-> Region 912
Added edge: Region 908 <-> Region 914
Added edge: Region 902 <-> Region 903
Added edge: Region 898 <-> Region 895
Added edge: Region 906 <-> Region 915
Added edge: Region 913 <-> Region 912
Added edge: Region 913 <-> Region 907
Added edge: Region 891 <-> Region 914
Added edge: Region 893 <-> Region 916
Added edge: Region 902 <-> Region 917
Added edge: Region 904 <-> Region 909
Added edge: Region 911 <-> Region 905
Added edge: Region 816 <-> Region 919
Added edge: Region 912 <-> Region 915
Added edge: Region 889 <-> Region 920
Added edge: Region 914 <-> Region 921
Added edge: Region 917 <-> Region 903
Added edge: Region 824 <-> Region 922
Added edge: Region 842 <-> Region 923
Added edge: Region 915 <-> Region 919
Added edge: Region 922 <-> Region 829
Added edge: Region 829 <-> Region 924
Added edge: Region 860 <-> Region 924
Added edge: Region 860 <-> Region 925
Added edge: Region 918 <-> Region 923
Added edge: Region 918 <-> Region 904
Added edge: Region 916 <-> Region 921
Added edge: Region 916 <-> Region 926
Added edge: Region 924 <-> Region 925
Added edge: Region 895 <-> Region 928
Added edge: Region 816 <-> Region 929
Added edge: Region 920 <-> Region 931
Added edge: Region 903 <-> Region 932
Added edge: Region 903 <-> Region 933
Added edge: Region 824 <-> Region 933
Added edge: Region 829 <-> Region 934
Added edge: Region 895 <-> Region 935
Added edge: Region 929 <-> Region 911
Added edge: Region 915 <-> Region 930
Added edge: Region 891 <-> Region 931
Added edge: Region 927 <-> Region 936
Added edge: Region 923 <-> Region 937
Added edge: Region 909 <-> Region 935
Added edge: Region 824 <-> Region 939
Added edge: Region 934 <-> Region 925
Added edge: Region 904 <-> Region 937
Added edge: Region 929 <-> Region 941
Added edge: Region 919 <-> Region 941
Added edge: Region 938 <-> Region 930
Added edge: Region 932 <-> Region 943
Added edge: Region 939 <-> Region 944
Added edge: Region 940 <-> Region 944
Added edge: Region 940 <-> Region 934
Added edge: Region 932 <-> Region 945
Added edge: Region 935 <-> Region 946
Added edge: Region 928 <-> Region 946
Added edge: Region 911 <-> Region 947
Added edge: Region 931 <-> Region 948
Added edge: Region 944 <-> Region 950
Added edge: Region 905 <-> Region 951
Added edge: Region 891 <-> Region 952
Added edge: Region 914 <-> Region 952
Added edge: Region 945 <-> Region 943
Added edge: Region 950 <-> Region 955
Added edge: Region 934 <-> Region 955
Added edge: Region 925 <-> Region 956
Added edge: Region 947 <-> Region 951
Added edge: Region 948 <-> Region 957
Added edge: Region 891 <-> Region 958
Added edge: Region 952 <-> Region 958
Added edge: Region 952 <-> Region 921
Added edge: Region 921 <-> Region 959
Added edge: Region 954 <-> Region 949
Added edge: Region 923 <-> Region 956
Added edge: Region 953 <-> Region 959
Added edge: Region 949 <-> Region 961
Added edge: Region 945 <-> Region 961
Added edge: Region 943 <-> Region 962
Added edge: Region 950 <-> Region 962
Added edge: Region 925 <-> Region 963
Added edge: Region 947 <-> Region 965
Added edge: Region 930 <-> Region 966
Added edge: Region 909 <-> Region 967
Added edge: Region 935 <-> Region 967
Added edge: Region 965 <-> Region 964
Added edge: Region 941 <-> Region 968
Added edge: Region 931 <-> Region 969
Added edge: Region 962 <-> Region 970
Added edge: Region 955 <-> Region 963
Added edge: Region 919 <-> Region 971
Added edge: Region 919 <-> Region 972
Added edge: Region 948 <-> Region 973
Added edge: Region 959 <-> Region 974
Added edge: Region 955 <-> Region 970
Added edge: Region 967 <-> Region 946
Added edge: Region 971 <-> Region 968
Added edge: Region 969 <-> Region 973
Added edge: Region 943 <-> Region 975
Added edge: Region 956 <-> Region 976
Added edge: Region 964 <-> Region 960
Added edge: Region 961 <-> Region 975
Added edge: Region 937 <-> Region 978
Added edge: Region 973 <-> Region 980
Added edge: Region 979 <-> Region 983
Added edge: Region 959 <-> Region 984
Added edge: Region 976 <-> Region 985
Added edge: Region 965 <-> Region 986
Added edge: Region 968 <-> Region 986
Added edge: Region 968 <-> Region 987
Added edge: Region 982 <-> Region 981
Added edge: Region 982 <-> Region 983
Added edge: Region 979 <-> Region 989
Added edge: Region 980 <-> Region 989
Added edge: Region 980 <-> Region 990
Added edge: Region 986 <-> Region 964
Added edge: Region 987 <-> Region 988
Added edge: Region 989 <-> Region 983
Added edge: Region 991 <-> Region 990
Added edge: Region 963 <-> Region 995
Added edge: Region 976 <-> Region 995
Added edge: Region 988 <-> Region 981
Added edge: Region 981 <-> Region 996
Added edge: Region 983 <-> Region 996
Added edge: Region 992 <-> Region 991
Added edge: Region 970 <-> Region 999
Added edge: Region 904 <-> Region 1000
Added edge: Region 970 <-> Region 1002
Added edge: Region 995 <-> Region 985
Added edge: Region 904 <-> Region 1003

Graph construction complete:
  Total edges added: 1461
  Graph vertices: 1004

Adjacency matrix:
      1  2  3  4  5  6  7  8  9 10 11 12 13 14 15 16 17 18 19 20 21 22 23 24 25 26 27 28 29 30 31 32 33 34 35 36 37 38 39 40 41 42 43 44 45 46 47 48 49 50 51 52 53 54 55 56 57 58 59 60 61 62 63 64 65 66 67 68 69 70 71 72 73 74 75 76 77 78 79 80 81 82 83 84 85 86 87 88 89 90 91 92 93 94 95 96 97 98 99 100 101 102 103 104 105 106 107 108 109 110 111 112 113 114 115 116 117 118 119 120 121 122 123 124 125 126 127 128 129 130 131 132 133 134 135 136 137 138 139 140 141 142 143 144 145 146 147 148 149 150 151 152 153 154 155 156 157 158 159 160 161 162 163 164 165 166 167 168 169 170 171 172 173 174 175 176 177 178 179 180 181 182 183 184 185 186 187 188 189 190 191 192 193 194 195 196 197 198 199 200 201 202 203 204 205 206 207 208 209 210 211 212 213 214 215 216 217 218 219 220 221 222 223 224 225 226 227 228 229 230 231 232 233 234 235 236 237 238 239 240 241 242 243 244 245 246 247 248 249 250 251 252 253 254 255 256 257 258 259 260 261 262 263 264 265 266 267 268 269 270 271 272 273 274 275 276 277 278 279 280 281 282 283 284 285 286 287 288 289 290 291 292 293 294 295 296 297 298 299 300 301 302 303 304 305 306 307 308 309 310 311 312 313 314 315 316 317 318 319 320 321 322 323 324 325 326 327 328 329 330 331 332 333 334 335 336 337 338 339 340 341 342 343 344 345 346 347 348 349 350 351 352 353 354 355 356 357 358 359 360 361 362 363 364 365 366 367 368 369 370 371 372 373 374 375 376 377 378 379 380 381 382 383 384 385 386 387 388 389 390 391 392 393 394 395 396 397 398 399 400 401 402 403 404 405 406 407 408 409 410 411 412 413 414 415 416 417 418 419 420 421 422 423 424 425 426 427 428 429 430 431 432 433 434 435 436 437 438 439 440 441 442 443 444 445 446 447 448 449 450 451 452 453 454 455 456 457 458 459 460 461 462 463 464 465 466 467 468 469 470 471 472 473 474 475 476 477 478 479 480 481 482 483 484 485 486 487 488 489 490 491 492 493 494 495 496 497 498 499 500 501 502 503 504 505 506 507 508 509 510 511 512 513 514 515 516 517 518 519 520 521 522 523 524 525 526 527 528 529 530 531 532 533 534 535 536 537 538 539 540 541 542 543 544 545 546 547 548 549 550 551 552 553 554 555 556 557 558 559 560 561 562 563 564 565 566 567 568 569 570 571 572 573 574 575 576 577 578 579 580 581 582 583 584 585 586 587 588 589 590 591 592 593 594 595 596 597 598 599 600 601 602 603 604 605 606 607 608 609 610 611 612 613 614 615 616 617 618 619 620 621 622 623 624 625 626 627 628 629 630 631 632 633 634 635 636 637 638 639 640 641 642 643 644 645 646 647 648 649 650 651 652 653 654 655 656 657 658 659 660 661 662 663 664 665 666 667 668 669 670 671 672 673 674 675 676 677 678 679 680 681 682 683 684 685 686 687 688 689 690 691 692 693 694 695 696 697 698 699 700 701 702 703 704 705 706 707 708 709 710 711 712 713 714 715 716 717 718 719 720 721 722 723 724 725 726 727 728 729 730 731 732 733 734 735 736 737 738 739 740 741 742 743 744 745 746 747 748 749 750 751 752 753 754 755 756 757 758 759 760 761 762 763 764 765 766 767 768 769 770 771 772 773 774 775 776 777 778 779 780 781 782 783 784 785 786 787 788 789 790 791 792 793 794 795 796 797 798 799 800 801 802 803 804 805 806 807 808 809 810 811 812 813 814 815 816 817 818 819 820 821 822 823 824 825 826 827 828 829 830 831 832 833 834 835 836 837 838 839 840 841 842 843 844 845 846 847 848 849 850 851 852 853 854 855 856 857 858 859 860 861 862 863 864 865 866 867 868 869 870 871 872 873 874 875 876 877 878 879 880 881 882 883 884 885 886 887 888 889 890 891 892 893 894 895 896 897 898 899 900 901 902 903 904 905 906 907 908 909 910 911 912 913 914 915 916 917 918 919 920 921 922 923 924 925 926 927 928 929 930 931 932 933 934 935 936 937 938 939 940 941 942 943 944 945 946 947 948 949 950 951 952 953 954 955 956 957 958 959 960 961 962 963 964 965 966 967 968 969 970 971 972 973 974 975 976 977 978 979 980 981 982 983 984 985 986 987 988 989 990 991 992 993 994 995 996 997 998 999 1000 1001 1002 1003 
 1:  0  0  0  0  0  0  0  0  0  0  0  0  0  0  0  0  0  0  0  0  0  0  0  0  0  0  0  0  0  0  0  0  0  0  0  0  0  0  0  0  0  0  1  0  0  0  0  0  0  0  0  0  0  0  0  0  0  0  0  0  0  0  0  0  1  0  0  0  1  0  0  0  0  0  0  0  0  0  0  0  0  0  0  0  0  0  0  0  0  0  0  0  0  0  0  0  0  0  0  0  0  0  0  0  0  0  0  0  0  0  0  0  0  0  0  0  0  0  0  0  0  0  0  0  0  0  0  0  0  0  0  0  0  0  0  0  0  0  0  0  0  0  0  0  0  0  0  0  0  0  0  0  0  0  0  0  0  0  0  0  0  0  0  0  0  0  0  0  0  0  0  0  0  0  0  0  0  0  0  0  0  0  0  0  0  0  0  0  0  0  0  0  0  0  0  0  0  0  0  0  0  0  0  0  0  0  0  0  0  0  0  0  0  0  0  0  0  0  0  0  0  0  0  0  0  0  0  0  0  0  0  0  0  0  0  0  0  0  0  0  0  0  0  0  0  0  0  0  0  0  0  0  0  0  0  0  0  0  0  0  0  0  0  0  0  0  0  0  0  0  0  0  0  0  0  0  0  0  0  0  0  0  0  0  0  0  0  0  0  0  0  0  0  0  0  0  0  0  0  0  0  0  0  0  0  0  0  0  0  0  0  0  0  0  0  0  0  0  0  0  0  0  0  0  0  0  0  0  0  0  0  0  0  0  0  0  0  0  0  0  0  0  0  0  0  0  0  0  0  0  0  0  0  0  0  0  0  0  0  0  0  0  0  0  0  0  0  0  0  0  0  0  0  0  0  0  0  0  0  0  0  0  0  0  0  0  0  0  0  0  0  0  0  0  0  0  0  0  0  0  0  0  0  0  0  0  0  0  0  0  0  0  0  0  0  0  0  0  0  0  0  0  0  0  0  0  0  0  0  0  0  0  0  0  0  0  0  0  0  0  0  0  0  0  0  0  0  0  0  0  0  0  0  0  0  0  0  0  0  0  0  0  0  0  0  0  0  0  0  0  0  0  0  0  0  0  0  0  0  0  0  0  0  0  0  0  0  0  0  0  0  0  0  0  0  0  0  0  0  0  0  0  0  0  0  0  0  0  0  0  0  0  0  0  0  0  0  0  0  0  0  0  0  0  0  0  0  0  0  0  0  0  0  0  0  0  0  0  0  0  0  0  0  0  0  0  0  0  0  0  0  0  0  0  0  0  0  0  0  0  0  0  0  0  0  0  0  0  0  0  0  0  0  0  0  0  0  0  0  0  0  0  0  0  0  0  0  0  0  0  0  0  0  0  0  0  0  0  0  0  0  0  0  0  0  0  0  0  0  0  0  0  0  0  0  0  0  0  0  0  0  0  0  0  0  0  0  0  0  0  0  0  0  0  0  0  0  0  0  0  0  0  0  0  0  0  0  0  0  0  0  0  0  0  0  0  0  0  0  0  0  0  0  0  0  0  0  0  0  0  0  0  0  0  0  0  0  0  0  0  0  0  0  0  0  0  0  0  0  0  0  0  0  0  0  0  0  0  0  0  0  0  0  0  0  0  0  0  0  0  0  0  0  0  0  0  0  0  0  0  0  0  0  0  0  0  0  0  0  0  0  0  0  0  0  0  0  0  0  0  0  0  0  0  0  0  0  0  0  0  0  0  0  0  0  0  0  0  0  0  0  0  0  0  0  0  0  0  0  0  0  0  0  0  0  0  0  0  0  0  0  0  0  0  0  0  0  0  0  0  0  0  0  0  0  0  0  0  0  0  0  0  0  0  0  0  0  0  0  0  0  0  0  0  0  0  0  0  0  0  0  0  0  0  0  0  0  0  0  0  0  0  0  0  0  0  0  0  0  0  0  0  0  0  0  0  0  0  0  0  0  0  0  0  0  0  0  0  0  0  0  0  0  0  0  0  0  0  0  0  0  0  0  0  0  0  0  0  0  0  0  0  0  0  0  0  0  0  0  0  0  0  0  0  0  0  0  0  0  0  0  0  0  0  0  0  0  0  0  0  0  0  0  0  0  0  0  0  0  0  0  0  0  0  0  0  0  0  0  0  0  0  0  0  0  0  0  0  0  0  0  0  0  0  0  0  0  0  0  0  0  0  0  0  0  0  0  0  0  0  0  0  0  0  0  0  0  0  0  0  0  0  0  0  0  0  0  0  0  0  0  0  0  0  0  0  0  0  0  0  0  0  0  0  0  0  0  0  0  0  0  0  0 
 2:  0  0  1  0  0  0  0  0  0  0  0  0  0  0  0  0  0  0  0  0  0  0  0  0  0  0  0  0  0  0  0  0  0  0  0  0  0  0  0  0  0  0  1  0  0  0  0  0  0  0  0  0  0  0  0  0  0  0  0  0  0  0  0  0  0  0  0  0  0  0  0  0  0  0  0  0  0  0  0  0  0  0  0  0  0  0  0  0  0  0  0  0  0  0  0  0  0  0  0  0  0  0  0  0  0  0  0  0  0  0  0  0  0  0  0  0  0  0  0  0  0  0  0  0  0  0  0  0  0  0  0  0  0  0  0  0  0  0  0  0  0  0  0  0  0  0  0  0  0  0  0  0  0  0  0  0  0  0  0  0  0  0  0  0  0  0  0  0  0  0  0  0  0  0  0  0  0  0  0  0  0  0  0  0  0  0  0  0  0  0  0  0  0  0  0  0  0  0  0  0  0  0  0  0  0  0  0  0  0  0  0  0  0  0  0  0  0  0  0  0  0  0  0  0  0  0  0  0  0  0  0  0  0  0  0  0  0  0  0  0  0  0  0  0  0  0  0  0  0  0  0  0  0  0  0  0  0  0  0  0  0  0  0  0  0  0  0  0  0  0  0  0  0  0  0  0  0  0  0  0  0  0  0  0  0  0  0  0  0  0  0  0  0  0  0  0  0  0  0  0  0  0  0  0  0  0  0  0  0  0  0  0  0  0  0  0  0  0  0  0  0  0  0  0  0  0  0  0  0  0  0  0  0  0  0  0  0  0  0  0  0  0  0  0  0  0  0  0  0  0  0  0  0  0  0  0  0  0  0  0  0  0  0  0  0  0  0  0  0  0  0  0  0  0  0  0  0  0  0  0  0  0  0  0  0  0  0  0  0  0  0  0  0  0  0  0  0  0  0  0  0  0  0  0  0  0  0  0  0  0  0  0  0  0  0  0  0  0  0  0  0  0  0  0  0  0  0  0  0  0  0  0  0  0  0  0  0  0  0  0  0  0  0  0  0  0  0  0  0  0  0  0  0  0  0  0  0  0  0  0  0  0  0  0  0  0  0  0  0  0  0  0  0  0  0  0  0  0  0  0  0  0  0  0  0  0  0  0  0  0  0  0  0  0  0  0  0  0  0  0  0  0  0  0  0  0  0  0  0  0  0  0  0  0  0  0  0  0  0  0  0  0  0  0  0  0  0  0  0  0  0  0  0  0  0  0  0  0  0  0  0  0  0  0  0  0  0  0  0  0  0  0  0  0  0  0  0  0  0  0  0  0  0  0  0  0  0  0  0  0  0  0  0  0  0  0  0  0  0  0  0  0  0  0  0  0  0  0  0  0  0  0  0  0  0  0  0  0  0  0  0  0  0  0  0  0  0  0  0  0  0  0  0  0  0  0  0  0  0  0  0  0  0  0  0  0  0  0  0  0  0  0  0  0  0  0  0  0  0  0  0  0  0  0  0  0  0  0  0  0  0  0  0  0  0  0  0  0  0  0  0  0  0  0  0  0  0  0  0  0  0  0  0  0  0  0  0  0  0  0  0  0  0  0  0  0  0  0  0  0  0  0  0  0  0  0  0  0  0  0  0  0  0  0  0  0  0  0  0  0  0  0  0  0  0  0  0  0  0  0  0  0  0  0  0  0  0  0  0  0  0  0  0  0  0  0  0  0  0  0  0  0  0  0  0  0  0  0  0  0  0  0  0  0  0  0  0  0  0  0  0  0  0  0  0  0  0  0  0  0  0  0  0  0  0  0  0  0  0  0  0  0  0  0  0  0  0  0  0  0  0  0  0  0  0  0  0  0  0  0  0  0  0  0  0  0  0  0  0  0  0  0  0  0  0  0  0  0  0  0  0  0  0  0  0  0  0  0  0  0  0  0  0  0  0  0  0  0  0  0  0  0  0  0  0  0  0  0  0  0  0  0  0  0  0  0  0  0  0  0  0  0  0  0  0  0  0  0  0  0  0  0  0  0  0  0  0  0  0  0  0  0  0  0  0  0  0  0  0  0  0  0  0  0  0  0  0  0  0  0  0  0  0  0  0  0  0  0  0  0  0  0  0  0  0  0  0  0  0  0  0  0  0  0  0  0  0  0  0  0  0  0  0  0  0  0  0  0  0  0  0  0  0  0  0  0  0  0  0  0  0  0  0  0  0  0  0  0  0  0  0  0  0  0  0  0  0  0  0  0  0  0  0  0  0  0  0  0  0  0  0  0  0  0  0  0  0  0  0  0  0  0  0  0  0  0  0  0  0  0  0  0  0 
 3:  0  1  0  0  0  0  0  0  0  0  0  0  0  0  0  0  0  0  0  0  0  0  0  0  0  0  0  0  0  0  0  0  0  0  0  0  0  0  0  0  0  0  1  0  0  0  0  0  0  0  0  0  0  0  0  0  0  0  0  0  0  0  0  0  0  0  0  0  1  0  0  0  0  0  0  0  0  0  0  0  0  0  0  0  0  0  0  0  0  0  0  0  0  0  0  0  0  0  0  0  0  0  0  0  0  0  0  0  0  0  0  0  0  0  1  0  0  0  0  1  1  0  0  0  0  0  0  0  0  0  0  0  0  0  0  0  0  0  0  0  0  0  0  0  0  0  0  0  0  0  0  0  0  0  0  0  0  0  0  0  0  0  0  0  0  0  0  0  0  0  0  0  0  0  0  0  0  0  0  0  0  0  0  0  0  0  0  0  0  0  0  0  0  0  0  0  0  0  0  0  0  0  0  0  0  0  0  0  0  0  0  0  0  0  0  0  0  0  0  0  0  0  0  0  0  0  0  0  0  0  0  0  0  0  0  0  0  0  0  0  0  0  0  0  0  0  0  0  0  0  0  0  0  0  0  0  0  0  0  0  0  0  0  0  0  0  0  0  0  0  0  0  0  0  0  0  0  0  0  0  0  0  0  0  0  0  0  0  0  0  0  0  0  0  0  0  0  0  0  0  0  0  0  0  0  0  0  0  0  0  0  0  0  0  0  0  0  0  0  0  0  0  0  0  0  0  0  0  0  0  0  0  0  0  0  0  0  0  0  0  0  0  0  0  0  0  0  0  0  0  0  0  0  0  0  0  0  0  0  0  0  0  0  0  0  0  0  0  0  0  0  0  0  0  0  0  0  0  0  0  0  0  0  0  0  0  0  0  0  0  0  0  0  0  0  0  0  0  0  0  0  0  0  0  0  0  0  0  0  0  0  0  0  0  0  0  0  0  0  0  0  0  0  0  0  0  0  0  0  0  0  0  0  0  0  0  0  0  0  0  0  0  0  0  0  0  0  0  0  0  0  0  0  0  0  0  0  0  0  0  0  0  0  0  0  0  0  0  0  0  0  0  0  0  0  0  0  0  0  0  0  0  0  0  0  0  0  0  0  0  0  0  0  0  0  0  0  0  0  0  0  0  0  0  0  0  0  0  0  0  0  0  0  0  0  0  0  0  0  0  0  0  0  0  0  0  0  0  0  0  0  0  0  0  0  0  0  0  0  0  0  0  0  0  0  0  0  0  0  0  0  0  0  0  0  0  0  0  0  0  0  0  0  0  0  0  0  0  0  0  0  0  0  0  0  0  0  0  0  0  0  0  0  0  0  0  0  0  0  0  0  0  0  0  0  0  0  0  0  0  0  0  0  0  0  0  0  0  0  0  0  0  0  0  0  0  0  0  0  0  0  0  0  0  0  0  0  0  0  0  0  0  0  0  0  0  0  0  0  0  0  0  0  0  0  0  0  0  0  0  0  0  0  0  0  0  0  0  0  0  0  0  0  0  0  0  0  0  0  0  0  0  0  0  0  0  0  0  0  0  0  0  0  0  0  0  0  0  0  0  0  0  0  0  0  0  0  0  0  0  0  0  0  0  0  0  0  0  0  0  0  0  0  0  0  0  0  0  0  0  0  0  0  0  0  0  0  0  0  0  0  0  0  0  0  0  0  0  0  0  0  0  0  0  0  0  0  0  0  0  0  0  0  0  0  0  0  0  0  0  0  0  0  0  0  0  0  0  0  0  0  0  0  0  0  0  0  0  0  0  0  0  0  0  0  0  0  0  0  0  0  0  0  0  0  0  0  0  0  0  0  0  0  0  0  0  0  0  0  0  0  0  0  0  0  0  0  0  0  0  0  0  0  0  0  0  0  0  0  0  0  0  0  0  0  0  0  0  0  0  0  0  0  0  0  0  0  0  0  0  0  0  0  0  0  0  0  0  0  0  0  0  0  0  0  0  0  0  0  0  0  0  0  0  0  0  0  0  0  0  0  0  0  0  0  0  0  0  0  0  0  0  0  0  0  0  0  0  0  0  0  0  0  0  0  0  0  0  0  0  0  0  0  0  0  0  0  0  0  0  0  0  0  0  0  0  0  0  0  0  0  0  0  0  0  0  0  0  0  0  0  0  0  0  0  0  0  0  0  0  0  0  0  0  0  0  0  0  0  0  0  0  0  0  0  0  0  0  0  0  0  0  0  0  0  0  0  0  0  0  0  0  0  0  0  0  0  0  0  0  0  0  0  0  0  0  0  0  0  0  0  0  0 
 4:  0  0  0  0  0  0  0  0  0  0  0  0  0  0  0  0  0  0  0  0  0  0  0  0  0  0  0  0  0  0  0  0  0  0  0  0  0  0  0  0  0  0  0  0  0  0  0  0  0  0  0  0  0  0  0  0  0  0  0  0  0  0  0  0  0  0  0  0  0  0  0  0  0  0  0  0  0  0  0  0  0  0  0  0  0  0  0  0  0  0  0  0  0  0  0  0  0  0  0  0  0  0  0  0  0  0  0  0  0  0  0  0  0  0  0  0  0  0  0  0  0  0  0  0  0  0  0  0  0  0  0  0  0  0  0  0  0  0  0  0  0  0  0  0  0  0  0  0  0  0  0  0  0  0  0  0  0  0  0  0  0  0  0  0  0  0  0  0  0  0  0  0  0  0  0  0  0  0  0  0  0  0  0  0  0  0  0  0  0  0  0  0  0  0  0  0  0  0  0  0  0  0  0  0  0  0  0  0  0  0  0  0  0  0  0  0  0  0  0  0  0  0  0  0  0  0  0  0  0  0  0  0  0  0  0  0  0  0  0  0  0  0  0  0  0  0  0  0  0  0  0  0  0  0  0  0  0  0  0  0  0  0  0  0  0  0  0  0  0  0  0  0  0  0  0  0  0  0  0  0  0  0  0  0  0  0  0  0  0  0  0  0  0  0  0  0  0  0  0  0  0  0  0  0  0  0  0  0  0  0  0  0  0  0  0  0  0  0  0  0  0  0  0  0  0  0  0  0  0  0  0  0  0  0  0  0  0  0  0  0  0  0  0  0  0  0  0  0  0  0  0  0  0  0  0  0  0  0  0  0  0  0  0  0  0  0  0  0  0  0  0  0  0  0  0  0  0  0  0  0  0  0  0  0  0  0  0  0  0  0  0  0  0  0  0  0  0  0  0  0  0  0  0  0  0  0  0  0  0  0  0  0  0  0  0  0  0  0  0  0  0  0  0  0  0  0  0  0  0  0  0  0  0  0  0  0  0  0  0  0  0  0  0  0  0  0  0  0  0  0  0  0  0  0  0  0  0  0  0  0  0  0  0  0  0  0  0  0  0  0  0  0  0  0  0  0  0  0  0  0  0  0  0  0  0  0  0  0  0  0  0  0  0  0  0  0  0  0  0  0  0  0  0  0  0  0  0  0  0  0  0  0  0  0  0  0  0  0  0  0  0  0  0  0  0  0  0  0  0  0  0  0  0  0  0  0  0  0  0  0  0  0  0  0  0  0  0  0  0  0  0  0  0  0  0  0  0  0  0  0  0  0  0  0  0  0  0  0  0  0  0  0  0  0  0  0  0  0  0  0  0  0  0  0  0  0  0  0  0  0  0  0  0  0  0  0  0  0  0  0  0  0  0  0  0  0  0  0  0  0  0  0  0  0  0  0  0  0  0  0  0  0  0  0  0  0  0  0  0  0  0  0  0  0  0  0  0  0  0  0  0  0  0  0  0  0  0  0  0  0  0  0  0  0  0  0  0  0  0  0  0  0  0  0  0  0  0  0  0  0  0  0  0  0  0  0  0  0  0  0  0  0  0  0  0  0  0  0  0  0  0  0  0  0  0  0  0  0  0  0  0  0  0  0  0  0  0  0  0  0  0  0  0  0  0  0  0  0  0  0  0  0  0  0  0  0  0  0  0  0  0  0  0  0  0  0  0  0  0  0  0  0  0  0  0  0  0  0  0  0  0  0  0  0  0  0  0  0  0  0  0  0  0  0  0  0  0  0  0  0  0  0  0  0  0  0  0  0  0  0  0  0  0  0  0  0  0  0  0  0  0  0  0  0  0  0  0  0  0  0  0  0  0  0  0  0  0  0  0  0  0  0  0  0  0  0  0  0  0  0  0  0  0  0  0  0  0  0  0  0  0  0  0  0  0  0  0  0  0  0  0  0  0  0  0  0  0  0  0  0  0  0  0  0  0  0  0  0  0  0  0  0  0  0  0  0  0  0  0  0  0  0  0  0  0  0  0  0  0  0  0  0  0  0  0  0  0  0  0  0  0  0  0  0  0  0  0  0  0  0  0  0  0  0  0  0  0  0  0  0  0  0  0  0  0  0  0  0  0  0  0  0  0  0  0  0  0  0  0  0  0  0  0  0  0  0  0  0  0  0  0  0  0  0  0  0  0  0  0  0  0  0  0  0  0  0  0  0  0  0  0  0  0  0  0  0  0  0  0  0  0  0  0  0  0  0  0  0  0  0  0  0  0  0  0  0  0  0  0  0  0  0  0  0  0  0  0  0  0  0  0  0  0 
 5:  0  0  0  0  0  0  0  0  0  0  0  0  0  0  0  0  0  0  0  0  0  0  0  0  0  0  0  0  0  0  0  0  0  0  0  0  0  0  0  0  0  0  0  0  0  0  0  0  0  0  0  0  0  0  0  0  0  0  0  0  0  0  0  0  0  0  0  0  0  0  0  0  0  0  0  0  0  0  0  0  0  0  0  0  0  0  0  0  0  0  0  0  0  0  0  0  0  0  0  0  0  0  0  0  0  0  0  0  0  0  0  0  0  0  0  0  0  0  0  0  0  0  0  0  0  0  0  0  0  0  0  0  0  0  0  0  0  0  0  0  0  0  0  0  0  0  0  0  0  0  0  0  0  0  0  0  0  0  0  0  0  0  0  0  0  0  0  0  0  0  0  0  0  0  0  0  0  0  0  0  0  0  0  0  0  0  0  0  0  0  0  0  0  0  0  0  0  0  0  0  0  0  0  0  0  0  0  0  0  0  0  0  0  0  0  0  0  0  0  0  0  0  0  0  0  0  0  0  0  0  0  0  0  0  0  0  0  0  0  0  0  0  0  0  0  0  0  0  0  0  0  0  0  0  0  0  0  0  0  0  0  0  0  0  0  0  0  0  0  0  0  0  0  0  0  0  0  0  0  0  0  0  0  0  0  0  0  0  0  0  0  0  0  0  0  0  0  0  0  0  0  0  0  0  0  0  0  0  0  0  0  0  0  0  0  0  0  0  0  0  0  0  0  0  0  0  0  0  0  0  0  0  0  0  0  0  0  0  0  0  0  0  0  0  0  0  0  0  0  0  0  0  0  0  0  0  0  0  0  0  0  0  0  0  0  0  0  0  0  0  0  0  0  0  0  0  0  0  0  0  0  0  0  0  0  0  0  0  0  0  0  0  0  0  0  0  0  0  0  0  0  0  0  0  0  0  0  0  0  0  0  0  0  0  0  0  0  0  0  0  0  0  0  0  0  0  0  0  0  0  0  0  0  0  0  0  0  0  0  0  0  0  0  0  0  0  0  0  0  0  0  0  0  0  0  0  0  0  0  0  0  0  0  0  0  0  0  0  0  0  0  0  0  0  0  0  0  0  0  0  0  0  0  0  0  0  0  0  0  0  0  0  0  0  0  0  0  0  0  0  0  0  0  0  0  0  0  0  0  0  0  0  0  0  0  0  0  0  0  0  0  0  0  0  0  0  0  0  0  0  0  0  0  0  0  0  0  0  0  0  0  0  0  0  0  0  0  0  0  0  0  0  0  0  0  0  0  0  0  0  0  0  0  0  0  0  0  0  0  0  0  0  0  0  0  0  0  0  0  0  0  0  0  0  0  0  0  0  0  0  0  0  0  0  0  0  0  0  0  0  0  0  0  0  0  0  0  0  0  0  0  0  0  0  0  0  0  0  0  0  0  0  0  0  0  0  0  0  0  0  0  0  0  0  0  0  0  0  0  0  0  0  0  0  0  0  0  0  0  0  0  0  0  0  0  0  0  0  0  0  0  0  0  0  0  0  0  0  0  0  0  0  0  0  0  0  0  0  0  0  0  0  0  0  0  0  0  0  0  0  0  0  0  0  0  0  0  0  0  0  0  0  0  0  0  0  0  0  0  0  0  0  0  0  0  0  0  0  0  0  0  0  0  0  0  0  0  0  0  0  0  0  0  0  0  0  0  0  0  0  0  0  0  0  0  0  0  0  0  0  0  0  0  0  0  0  0  0  0  0  0  0  0  0  0  0  0  0  0  0  0  0  0  0  0  0  0  0  0  0  0  0  0  0  0  0  0  0  0  0  0  0  0  0  0  0  0  0  0  0  0  0  0  0  0  0  0  0  0  0  0  0  0  0  0  0  0  0  0  0  0  0  0  0  0  0  0  0  0  0  0  0  0  0  0  0  0  0  0  0  0  0  0  0  0  0  0  0  0  0  0  0  0  0  0  0  0  0  0  0  0  0  0  0  0  0  0  0  0  0  0  0  0  0  0  0  0  0  0  0  0  0  0  0  0  0  0  0  0  0  0  0  0  0  0  0  0  0  0  0  0  0  0  0  0  0  0  0  0  0  0  0  0  0  0  0  0  0  0  0  0  0  0  0  0  0  0  0  0  0  0  0  0  0  0  0  0  0  0  0  0  0  0  0  0  0  0  0  0  0  0  0  0  0  0  0  0  0  0  0  0  0  0  0  0  0  0  0  0  0  0  0  0  0  0  0  0  0  0  0  0  0  0  0  0  0  0  0  0  0  0  0  0  0  0  0  0  0  0  0  0  0  0 
 6:  0  0  0  0  0  0  0  0  0  0  0  0  0  0  0  0  0  0  0  0  1  0  0  0  0  0  0  0  0  0  0  0  0  0  0  0  0  0  0  0  0  0  0  0  0  0  0  0  0  0  0  0  0  0  0  0  0  0  0  0  0  0  0  0  0  0  0  0  0  0  0  0  0  0  0  0  0  0  0  0  0  0  0  0  0  0  0  0  0  0  0  0  0  0  0  0  0  0  0  0  0  0  0  0  0  0  0  0  0  0  0  0  0  0  0  0  0  0  0  0  0  0  0  0  0  0  0  0  0  0  0  0  0  0  0  0  0  0  0  0  0  0  0  0  0  0  0  0  0  0  0  0  0  0  0  0  0  0  0  0  0  0  0  0  0  0  0  0  0  0  0  0  0  0  0  0  0  0  0  0  0  0  0  0  0  0  0  0  0  0  0  0  0  0  0  0  0  0  0  0  0  0  0  0  0  0  0  0  0  0  0  0  0  0  0  0  0  0  0  0  0  0  0  0  0  0  0  0  0  0  0  0  0  0  0  0  0  0  0  0  0  0  0  0  0  0  0  0  0  0  0  0  0  0  0  0  0  0  0  0  0  0  0  0  0  0  0  0  0  0  0  0  0  0  0  0  0  0  0  0  0  0  0  0  0  0  0  0  0  0  0  0  0  0  0  0  0  0  0  0  0  0  0  0  0  0  0  0  0  0  0  0  0  0  0  0  0  0  0  0  0  0  0  0  0  0  0  0  0  0  0  0  0  0  0  0  0  0  0  0  0  0  0  0  0  0  0  0  0  0  0  0  0  0  0  0  0  0  0  0  0  0  0  0  0  0  0  0  0  0  0  0  0  0  0  0  0  0  0  0  0  0  0  0  0  0  0  0  0  0  0  0  0  0  0  0  0  0  0  0  0  0  0  0  0  0  0  0  0  0  0  0  0  0  0  0  0  0  0  0  0  0  0  0  0  0  0  0  0  0  0  0  0  0  0  0  0  0  0  0  0  0  0  0  0  0  0  0  0  0  0  0  0  0  0  0  0  0  0  0  0  0  0  0  0  0  0  0  0  0  0  0  0  0  0  0  0  0  0  0  0  0  0  0  0  0  0  0  0  0  0  0  0  0  0  0  0  0  0  0  0  0  0  0  0  0  0  0  0  0  0  0  0  0  0  0  0  0  0  0  0  0  0  0  0  0  0  0  0  0  0  0  0  0  0  0  0  0  0  0  0  0  0  0  0  0  0  0  0  0  0  0  0  0  0  0  0  0  0  0  0  0  0  0  0  0  0  0  0  0  0  0  0  0  0  0  0  0  0  0  0  0  0  0  0  0  0  0  0  0  0  0  0  0  0  0  0  0  0  0  0  0  0  0  0  0  0  0  0  0  0  0  0  0  0  0  0  0  0  0  0  0  0  0  0  0  0  0  0  0  0  0  0  0  0  0  0  0  0  0  0  0  0  0  0  0  0  0  0  0  0  0  0  0  0  0  0  0  0  0  0  0  0  0  0  0  0  0  0  0  0  0  0  0  0  0  0  0  0  0  0  0  0  0  0  0  0  0  0  0  0  0  0  0  0  0  0  0  0  0  0  0  0  0  0  0  0  0  0  0  0  0  0  0  0  0  0  0  0  0  0  0  0  0  0  0  0  0  0  0  0  0  0  0  0  0  0  0  0  0  0  0  0  0  0  0  0  0  0  0  0  0  0  0  0  0  0  0  0  0  0  0  0  0  0  0  0  0  0  0  0  0  0  0  0  0  0  0  0  0  0  0  0  0  0  0  0  0  0  0  0  0  0  0  0  0  0  0  0  0  0  0  0  0  0  0  0  0  0  0  0  0  0  0  0  0  0  0  0  0  0  0  0  0  0  0  0  0  0  0  0  0  0  0  0  0  0  0  0  0  0  0  0  0  0  0  0  0  0  0  0  0  0  0  0  0  0  0  0  0  0  0  0  0  0  0  0  0  0  0  0  0  0  0  0  0  0  0  0  0  0  0  0  0  0  0  0  0  0  0  0  0  0  0  0  0  0  0  0  0  0  0  0  0  0  0  0  0  0  0  0  0  0  0  0  0  0  0  0  0  0  0  0  0  0  0  0  0  0  0  0  0  0  0  0  0  0  0  0  0  0  0  0  0  0  0  0  0  0  0  0  0  0  0  0  0  0  0  0  0  0  0  0  0  0  0  0  0  0  0  0  0  0  0  0  0  0  0  0  0  0  0  0  0  0  0  0  0  0  0  0  0  0  0  0  0  0  0  0  0  0  0  0 
[...]
  Region 124: Color 1
  Region 125: Color 1
  Region 126: Color 1
  Region 127: Color 2
  Region 128: Color 2
  Region 129: Color 1
  Region 130: Color 2
  Region 131: Color 2
  Region 132: Color 2
  Region 133: Color 3
  Region 134: Color 1
  Region 135: Color 2
  Region 136: Color 2
  Region 137: Color 1
  Region 138: Color 3
  Region 139: Color 1
  Region 140: Color 2
  Region 141: Color 2
  Region 142: Color 2
  Region 143: Color 1
  Region 144: Color 1
  Region 145: Color 4
  Region 146: Color 3
  Region 147: Color 3
  Region 148: Color 1
  Region 149: Color 1
  Region 150: Color 1
  Region 151: Color 2
  Region 152: Color 2
  Region 153: Color 1
  Region 154: Color 4
  Region 155: Color 2
  Region 156: Color 3
  Region 157: Color 1
  Region 158: Color 1
  Region 159: Color 2
  Region 160: Color 3
  Region 161: Color 2
  Region 162: Color 1
  Region 163: Color 1
  Region 164: Color 1
  Region 165: Color 3
  Region 166: Color 1
  Region 167: Color 2
  Region 168: Color 1
  Region 169: Color 2
  Region 170: Color 3
  Region 171: Color 2
  Region 172: Color 3
  Region 173: Color 3
  Region 174: Color 2
  Region 175: Color 3
  Region 176: Color 4
  Region 177: Color 2
  Region 178: Color 3
  Region 179: Color 3
  Region 180: Color 3
  Region 181: Color 1
  Region 182: Color 3
  Region 183: Color 2
  Region 184: Color 3
  Region 185: Color 3
  Region 186: Color 2
  Region 187: Color 2
  Region 188: Color 2
  Region 189: Color 4
  Region 190: Color 1
  Region 191: Color 1
  Region 192: Color 2
  Region 193: Color 2
  Region 194: Color 1
  Region 195: Color 1
  Region 196: Color 2
  Region 197: Color 3
  Region 198: Color 1
  Region 199: Color 3
  Region 200: Color 4
  Region 201: Color 3
  Region 202: Color 1
  Region 203: Color 3
  Region 204: Color 2
  Region 205: Color 2
  Region 206: Color 2
  Region 207: Color 3
  Region 208: Color 1
  Region 209: Color 1
  Region 210: Color 2
  Region 211: Color 3
  Region 212: Color 2
  Region 213: Color 3
  Region 214: Color 1
  Region 215: Color 4
  Region 216: Color 2
  Region 217: Color 1
  Region 218: Color 1
  Region 219: Color 1
  Region 220: Color 1
  Region 221: Color 1
  Region 222: Color 2
  Region 223: Color 1
  Region 224: Color 1
  Region 225: Color 2
  Region 226: Color 3
  Region 227: Color 2
  Region 228: Color 1
  Region 229: Color 3
  Region 230: Color 2
  Region 231: Color 2
  Region 232: Color 1
  Region 233: Color 3
  Region 234: Color 2
  Region 235: Color 2
  Region 236: Color 3
  Region 237: Color 1
  Region 238: Color 2
  Region 239: Color 2
  Region 240: Color 4
  Region 241: Color 2
  Region 242: Color 2
  Region 243: Color 1
  Region 244: Color 2
  Region 245: Color 3
  Region 246: Color 2
  Region 247: Color 2
  Region 248: Color 1
  Region 249: Color 2
  Region 250: Color 3
  Region 251: Color 1
  Region 252: Color 2
  Region 253: Color 3
  Region 254: Color 1
  Region 255: Color 2
  Region 256: Color 1
  Region 257: Color 2
  Region 258: Color 1
  Region 259: Color 2
  Region 260: Color 3
  Region 261: Color 1
  Region 262: Color 1
  Region 263: Color 2
  Region 264: Color 3
  Region 265: Color 2
  Region 266: Color 3
  Region 267: Color 3
  Region 268: Color 1
  Region 269: Color 1
  Region 270: Color 2
  Region 271: Color 2
  Region 272: Color 3
  Region 273: Color 1
  Region 274: Color 2
  Region 275: Color 1
  Region 276: Color 3
  Region 277: Color 1
  Region 278: Color 1
  Region 279: Color 2
  Region 280: Color 2
  Region 281: Color 1
  Region 282: Color 3
  Region 283: Color 1
  Region 284: Color 2
  Region 285: Color 1
  Region 286: Color 2
  Region 287: Color 1
  Region 288: Color 1
  Region 289: Color 2
  Region 290: Color 1
  Region 291: Color 3
  Region 292: Color 3
  Region 293: Color 2
  Region 294: Color 3
  Region 295: Color 1
  Region 296: Color 2
  Region 297: Color 1
  Region 298: Color 2
  Region 299: Color 2
  Region 300: Color 1
  Region 301: Color 2
  Region 302: Color 1
  Region 303: Color 3
  Region 304: Color 4
  Region 305: Color 3
  Region 306: Color 1
  Region 307: Color 2
  Region 308: Color 2
  Region 309: Color 3
  Region 310: Color 1
  Region 311: Color 3
  Region 312: Color 2
  Region 313: Color 1
  Region 314: Color 2
  Region 315: Color 1
  Region 316: Color 2
  Region 317: Color 2
  Region 318: Color 1
  Region 319: Color 2
  Region 320: Color 1
  Region 321: Color 1
  Region 322: Color 2
  Region 323: Color 2
  Region 324: Color 1
  Region 325: Color 2
  Region 326: Color 3
  Region 327: Color 3
  Region 328: Color 1
  Region 329: Color 1
  Region 330: Color 3
  Region 331: Color 1
  Region 332: Color 1
  Region 333: Color 2
  Region 334: Color 1
  Region 335: Color 2
  Region 336: Color 1
  Region 337: Color 3
  Region 338: Color 1
  Region 339: Color 1
  Region 340: Color 3
  Region 341: Color 4
  Region 342: Color 2
  Region 343: Color 1
  Region 344: Color 3
  Region 345: Color 1
  Region 346: Color 3
  Region 347: Color 2
  Region 348: Color 2
  Region 349: Color 3
  Region 350: Color 2
  Region 351: Color 2
  Region 352: Color 2
  Region 353: Color 2
  Region 354: Color 2
  Region 355: Color 2
  Region 356: Color 3
  Region 357: Color 2
  Region 358: Color 2
  Region 359: Color 2
  Region 360: Color 1
  Region 361: Color 1
  Region 362: Color 2
  Region 363: Color 1
  Region 364: Color 1
  Region 365: Color 1
  Region 366: Color 1
  Region 367: Color 1
  Region 368: Color 2
  Region 369: Color 2
  Region 370: Color 2
  Region 371: Color 1
  Region 372: Color 3
  Region 373: Color 3
  Region 374: Color 1
  Region 375: Color 1
  Region 376: Color 1
  Region 377: Color 2
  Region 378: Color 1
  Region 379: Color 3
  Region 380: Color 1
  Region 381: Color 1
  Region 382: Color 2
  Region 383: Color 1
  Region 384: Color 3
  Region 385: Color 2
  Region 386: Color 2
  Region 387: Color 2
  Region 388: Color 1
  Region 389: Color 1
  Region 390: Color 3
  Region 391: Color 2
  Region 392: Color 3
  Region 393: Color 1
  Region 394: Color 2
  Region 395: Color 1
  Region 396: Color 3
  Region 397: Color 3
  Region 398: Color 1
  Region 399: Color 1
  Region 400: Color 1
  Region 401: Color 2
  Region 402: Color 3
  Region 403: Color 2
  Region 404: Color 1
  Region 405: Color 1
  Region 406: Color 3
  Region 407: Color 1
  Region 408: Color 1
  Region 409: Color 2
  Region 410: Color 2
  Region 411: Color 3
  Region 412: Color 2
  Region 413: Color 1
  Region 414: Color 1
  Region 415: Color 2
  Region 416: Color 3
  Region 417: Color 4
  Region 418: Color 2
  Region 419: Color 1
  Region 420: Color 2
  Region 421: Color 1
  Region 422: Color 2
  Region 423: Color 3
  Region 424: Color 3
  Region 425: Color 1
  Region 426: Color 2
  Region 427: Color 2
  Region 428: Color 2
  Region 429: Color 2
  Region 430: Color 2
  Region 431: Color 2
  Region 432: Color 2
  Region 433: Color 2
  Region 434: Color 1
  Region 435: Color 3
  Region 436: Color 1
  Region 437: Color 1
  Region 438: Color 3
  Region 439: Color 2
  Region 440: Color 2
  Region 441: Color 4
  Region 442: Color 2
  Region 443: Color 3
  Region 444: Color 2
  Region 445: Color 1
  Region 446: Color 1
  Region 447: Color 1
  Region 448: Color 2
  Region 449: Color 4
  Region 450: Color 3
  Region 451: Color 2
  Region 452: Color 1
  Region 453: Color 2
  Region 454: Color 1
  Region 455: Color 1
  Region 456: Color 2
  Region 457: Color 2
  Region 458: Color 2
  Region 459: Color 2
  Region 460: Color 1
  Region 461: Color 1
  Region 462: Color 2
  Region 463: Color 1
  Region 464: Color 2
  Region 465: Color 2
  Region 466: Color 4
  Region 467: Color 3
  Region 468: Color 1
  Region 469: Color 2
  Region 470: Color 1
  Region 471: Color 2
  Region 472: Color 2
  Region 473: Color 3
  Region 474: Color 3
  Region 475: Color 2
  Region 476: Color 1
  Region 477: Color 3
  Region 478: Color 1
  Region 479: Color 2
  Region 480: Color 2
  Region 481: Color 2
  Region 482: Color 2
  Region 483: Color 1
  Region 484: Color 3
  Region 485: Color 1
  Region 486: Color 2
  Region 487: Color 2
  Region 488: Color 3
  Region 489: Color 1
  Region 490: Color 3
  Region 491: Color 3
  Region 492: Color 2
  Region 493: Color 3
  Region 494: Color 2
  Region 495: Color 3
  Region 496: Color 1
  Region 497: Color 2
  Region 498: Color 1
  Region 499: Color 3
  Region 500: Color 3
  Region 501: Color 1
  Region 502: Color 3
  Region 503: Color 3
  Region 504: Color 1
  Region 505: Color 3
  Region 506: Color 3
  Region 507: Color 3
  Region 508: Color 1
  Region 509: Color 2
  Region 510: Color 4
  Region 511: Color 3
  Region 512: Color 1
  Region 513: Color 1
  Region 514: Color 3
  Region 515: Color 2
  Region 516: Color 2
  Region 517: Color 3
  Region 518: Color 2
  Region 519: Color 1
  Region 520: Color 4
  Region 521: Color 2
  Region 522: Color 2
  Region 523: Color 2
  Region 524: Color 3
  Region 525: Color 1
  Region 526: Color 1
  Region 527: Color 3
  Region 528: Color 2
  Region 529: Color 3
  Region 530: Color 2
  Region 531: Color 2
  Region 532: Color 3
  Region 533: Color 3
  Region 534: Color 3
  Region 535: Color 3
  Region 536: Color 1
  Region 537: Color 3
  Region 538: Color 2
  Region 539: Color 4
  Region 540: Color 2
  Region 541: Color 1
  Region 542: Color 1
  Region 543: Color 2
  Region 544: Color 1
  Region 545: Color 2
  Region 546: Color 2
  Region 547: Color 2
  Region 548: Color 1
  Region 549: Color 1
  Region 550: Color 1
  Region 551: Color 2
  Region 552: Color 2
  Region 553: Color 1
  Region 554: Color 3
  Region 555: Color 2
  Region 556: Color 2
  Region 557: Color 2
  Region 558: Color 1
  Region 559: Color 1
  Region 560: Color 3
  Region 561: Color 3
  Region 562: Color 1
  Region 563: Color 2
  Region 564: Color 3
  Region 565: Color 3
  Region 566: Color 1
  Region 567: Color 2
  Region 568: Color 2
  Region 569: Color 1
  Region 570: Color 2
  Region 571: Color 3
  Region 572: Color 3
  Region 573: Color 2
  Region 574: Color 4
  Region 575: Color 2
  Region 576: Color 3
  Region 577: Color 1
  Region 578: Color 3
  Region 579: Color 1
  Region 580: Color 2
  Region 581: Color 1
  Region 582: Color 3
  Region 583: Color 2
  Region 584: Color 1
  Region 585: Color 2
  Region 586: Color 3
  Region 587: Color 1
  Region 588: Color 1
  Region 589: Color 3
  Region 590: Color 2
  Region 591: Color 3
  Region 592: Color 1
  Region 593: Color 2
  Region 594: Color 1
  Region 595: Color 2
  Region 596: Color 3
  Region 597: Color 4
  Region 598: Color 2
  Region 599: Color 3
  Region 600: Color 1
  Region 601: Color 3
  Region 602: Color 1
  Region 603: Color 2
  Region 604: Color 3
  Region 605: Color 1
  Region 606: Color 1
  Region 607: Color 1
  Region 608: Color 2
  Region 609: Color 2
  Region 610: Color 1
  Region 611: Color 3
  Region 612: Color 2
  Region 613: Color 2
  Region 614: Color 3
  Region 615: Color 3
  Region 616: Color 2
  Region 617: Color 1
  Region 618: Color 3
  Region 619: Color 3
  Region 620: Color 1
  Region 621: Color 1
  Region 622: Color 1
  Region 623: Color 1
  Region 624: Color 2
  Region 625: Color 2
  Region 626: Color 4
  Region 627: Color 1
  Region 628: Color 1
  Region 629: Color 3
  Region 630: Color 2
  Region 631: Color 1
  Region 632: Color 2
  Region 633: Color 2
  Region 634: Color 2
  Region 635: Color 4
  Region 636: Color 3
  Region 637: Color 2
  Region 638: Color 1
  Region 639: Color 2
  Region 640: Color 1
  Region 641: Color 1
  Region 642: Color 1
  Region 643: Color 2
  Region 644: Color 2
  Region 645: Color 1
  Region 646: Color 1
  Region 647: Color 4
  Region 648: Color 2
  Region 649: Color 1
  Region 650: Color 1
  Region 651: Color 2
  Region 652: Color 2
  Region 653: Color 3
  Region 654: Color 3
  Region 655: Color 3
  Region 656: Color 3
  Region 657: Color 1
  Region 658: Color 3
  Region 659: Color 1
  Region 660: Color 2
  Region 661: Color 1
  Region 662: Color 2
  Region 663: Color 2
  Region 664: Color 2
  Region 665: Color 2
  Region 666: Color 1
  Region 667: Color 3
  Region 668: Color 3
  Region 669: Color 3
  Region 670: Color 1
  Region 671: Color 2
  Region 672: Color 2
  Region 673: Color 1
  Region 674: Color 2
  Region 675: Color 3
  Region 676: Color 4
  Region 677: Color 2
  Region 678: Color 2
  Region 679: Color 2
  Region 680: Color 2
  Region 681: Color 3
  Region 682: Color 2
  Region 683: Color 3
  Region 684: Color 1
  Region 685: Color 1
  Region 686: Color 1
  Region 687: Color 2
  Region 688: Color 2
  Region 689: Color 1
  Region 690: Color 2
  Region 691: Color 1
  Region 692: Color 3
  Region 693: Color 1
  Region 694: Color 1
  Region 695: Color 1
  Region 696: Color 2
  Region 697: Color 1
  Region 698: Color 2
  Region 699: Color 1
  Region 700: Color 3
  Region 701: Color 3
  Region 702: Color 2
  Region 703: Color 1
  Region 704: Color 1
  Region 705: Color 2
  Region 706: Color 4
  Region 707: Color 2
  Region 708: Color 2
  Region 709: Color 3
  Region 710: Color 3
  Region 711: Color 3
  Region 712: Color 2
  Region 713: Color 3
  Region 714: Color 2
  Region 715: Color 1
  Region 716: Color 2
  Region 717: Color 1
  Region 718: Color 1
  Region 719: Color 2
  Region 720: Color 2
  Region 721: Color 2
  Region 722: Color 1
  Region 723: Color 3
  Region 724: Color 2
  Region 725: Color 1
  Region 726: Color 2
  Region 727: Color 2
  Region 728: Color 3
  Region 729: Color 2
  Region 730: Color 1
  Region 731: Color 2
  Region 732: Color 3
  Region 733: Color 3
  Region 734: Color 1
  Region 735: Color 2
  Region 736: Color 2
  Region 737: Color 1
  Region 738: Color 1
  Region 739: Color 2
  Region 740: Color 1
  Region 741: Color 1
  Region 742: Color 1
  Region 743: Color 3
  Region 744: Color 3
  Region 745: Color 2
  Region 746: Color 2
  Region 747: Color 2
  Region 748: Color 3
  Region 749: Color 2
  Region 750: Color 2
  Region 751: Color 3
  Region 752: Color 2
  Region 753: Color 2
  Region 754: Color 2
  Region 755: Color 2
  Region 756: Color 2
  Region 757: Color 1
  Region 758: Color 1
  Region 759: Color 3
  Region 760: Color 1
  Region 761: Color 1
  Region 762: Color 1
  Region 763: Color 3
  Region 764: Color 2
  Region 765: Color 4
  Region 766: Color 3
  Region 767: Color 2
  Region 768: Color 3
  Region 769: Color 1
  Region 770: Color 1
  Region 771: Color 1
  Region 772: Color 1
  Region 773: Color 4
  Region 774: Color 3
  Region 775: Color 3
  Region 776: Color 1
  Region 777: Color 2
  Region 778: Color 2
  Region 779: Color 2
  Region 780: Color 2
  Region 781: Color 2
  Region 782: Color 1
  Region 783: Color 1
  Region 784: Color 2
  Region 785: Color 2
  Region 786: Color 3
  Region 787: Color 2
  Region 788: Color 1
  Region 789: Color 2
  Region 790: Color 2
  Region 791: Color 1
  Region 792: Color 2
  Region 793: Color 2
  Region 794: Color 3
  Region 795: Color 1
  Region 796: Color 1
  Region 797: Color 2
  Region 798: Color 3
  Region 799: Color 1
  Region 800: Color 3
  Region 801: Color 1
  Region 802: Color 1
  Region 803: Color 2
  Region 804: Color 3
  Region 805: Color 1
  Region 806: Color 3
  Region 807: Color 1
  Region 808: Color 2
  Region 809: Color 3
  Region 810: Color 2
  Region 811: Color 2
  Region 812: Color 1
  Region 813: Color 1
  Region 814: Color 2
  Region 815: Color 1
  Region 816: Color 2
  Region 817: Color 2
  Region 818: Color 3
  Region 819: Color 2
  Region 820: Color 2
  Region 821: Color 4
  Region 822: Color 1
  Region 823: Color 3
  Region 824: Color 1
  Region 825: Color 3
  Region 826: Color 2
  Region 827: Color 1
  Region 828: Color 2
  Region 829: Color 2
  Region 830: Color 4
  Region 831: Color 3
  Region 832: Color 3
  Region 833: Color 1
  Region 834: Color 3
  Region 835: Color 2
  Region 836: Color 2
  Region 837: Color 2
  Region 838: Color 2
  Region 839: Color 2
  Region 840: Color 3
  Region 841: Color 2
  Region 842: Color 3
  Region 843: Color 2
  Region 844: Color 2
  Region 845: Color 3
  Region 846: Color 3
  Region 847: Color 1
  Region 848: Color 2
  Region 849: Color 1
  Region 850: Color 3
  Region 851: Color 4
  Region 852: Color 3
  Region 853: Color 4
  Region 854: Color 1
  Region 855: Color 2
  Region 856: Color 3
  Region 857: Color 1
  Region 858: Color 2
  Region 859: Color 3
  Region 860: Color 3
  Region 861: Color 1
  Region 862: Color 3
  Region 863: Color 2
  Region 864: Color 2
  Region 865: Color 4
  Region 866: Color 3
  Region 867: Color 2
  Region 868: Color 2
  Region 869: Color 2
  Region 870: Color 3
  Region 871: Color 2
  Region 872: Color 1
  Region 873: Color 4
  Region 874: Color 1
  Region 875: Color 3
  Region 876: Color 2
  Region 877: Color 3
  Region 878: Color 3
  Region 879: Color 1
  Region 880: Color 2
  Region 881: Color 2
  Region 882: Color 3
  Region 883: Color 1
  Region 884: Color 1
  Region 885: Color 2
  Region 886: Color 1
  Region 887: Color 1
  Region 888: Color 1
  Region 889: Color 2
  Region 890: Color 2
  Region 891: Color 1
  Region 892: Color 1
  Region 893: Color 2
  Region 894: Color 4
  Region 895: Color 1
  Region 896: Color 1
  Region 897: Color 1
  Region 898: Color 4
  Region 899: Color 3
  Region 900: Color 2
  Region 901: Color 1
  Region 902: Color 3
  Region 903: Color 1
  Region 904: Color 1
  Region 905: Color 2
  Region 906: Color 4
  Region 907: Color 1
  Region 908: Color 3
  Region 909: Color 2
  Region 910: Color 1
  Region 911: Color 3
  Region 912: Color 3
  Region 913: Color 2
  Region 914: Color 2
  Region 915: Color 2
  Region 916: Color 3
  Region 917: Color 2
  Region 918: Color 2
  Region 919: Color 1
  Region 920: Color 1
  Region 921: Color 1
  Region 922: Color 3
  Region 923: Color 1
  Region 924: Color 4
  Region 925: Color 1
  Region 926: Color 1
  Region 927: Color 1
  Region 928: Color 2
  Region 929: Color 1
  Region 930: Color 1
  Region 931: Color 2
  Region 932: Color 2
  Region 933: Color 2
  Region 934: Color 3
  Region 935: Color 3
  Region 936: Color 2
  Region 937: Color 2
  Region 938: Color 2
  Region 939: Color 2
  Region 940: Color 2
  Region 941: Color 2
  Region 942: Color 1
  Region 943: Color 1
  Region 944: Color 1
  Region 945: Color 3
  Region 946: Color 1
  Region 947: Color 1
  Region 948: Color 1
  Region 949: Color 2
  Region 950: Color 2
  Region 951: Color 3
  Region 952: Color 3
  Region 953: Color 1
  Region 954: Color 1
  Region 955: Color 1
  Region 956: Color 2
  Region 957: Color 2
  Region 958: Color 2
  Region 959: Color 2
  Region 960: Color 2
  Region 961: Color 1
  Region 962: Color 3
  Region 963: Color 2
  Region 964: Color 1
  Region 965: Color 2
  Region 966: Color 2
  Region 967: Color 4
  Region 968: Color 1
  Region 969: Color 1
  Region 970: Color 2
  Region 971: Color 2
  Region 972: Color 2
  Region 973: Color 2
  Region 974: Color 1
  Region 975: Color 2
  Region 976: Color 1
  Region 977: Color 1
  Region 978: Color 1
  Region 979: Color 3
  Region 980: Color 1
  Region 981: Color 1
  Region 982: Color 2
  Region 983: Color 1
  Region 984: Color 1
  Region 985: Color 2
  Region 986: Color 3
  Region 987: Color 2
  Region 988: Color 3
  Region 989: Color 2
  Region 990: Color 2
  Region 991: Color 1
  Region 992: Color 2
  Region 993: Color 1
  Region 994: Color 1
  Region 995: Color 3
  Region 996: Color 2
  Region 997: Color 1
  Region 998: Color 1
  Region 999: Color 1
  Region 1000: Color 2
  Region 1001: Color 1
  Region 1002: Color 1
  Region 1003: Color 2

Total colors used: 4

STEP 6: Applying colors to image
=================================
Image dimensions: 200 x 200 pixels
Color palette:
  Color 0: Black (borders)
  Color 1: Red (255, 0, 0)
  Color 2: Green (0, 255, 0)
  Color 3: Blue (0, 0, 255)
  Color 4: Yellow (255, 255, 0)

Pixel statistics:
  Colored pixels: 29847
  Border pixels: 10153
  Total pixels: 40000
Output file written successfully: oyt.bmp

FINAL STATISTICS
================
Number of colors used: 4
Coloring algorithm time: 0.0142 seconds
Total execution time: 1.5640 seconds

========================================
Log completed at: Sat Oct 18 18:24:58 2025
