=== MAP COLORING LOG ===
Started at: Thu Nov 20 17:45:36 2025
========================================

MAP COLORING PROCESS STARTED
============================
Input file: size3.bmp
Output file: size3out.bmp
Log file: map_coloring_log_size3out.bmp.txt

STEP -1: Reading BMP file
=========================
BMP file read successfully
Image dimensions: 300 x 300 pixels

STEP -2: Region detection
=========================
Region detection completed successfully
Total regions found: 5387

STEP 0: Building adjacency graph
=================================
Image dimensions: 300 x 300
Number of regions: 5387
Added edge: Region 7 <-> Region 1
Added edge: Region 7 <-> Region 2
Added edge: Region 8 <-> Region 2
Added edge: Region 13 <-> Region 40
Added edge: Region 22 <-> Region 21
Added edge: Region 23 <-> Region 47
Added edge: Region 24 <-> Region 48
Added edge: Region 27 <-> Region 49
Added edge: Region 32 <-> Region 31
Added edge: Region 33 <-> Region 62
Added edge: Region 39 <-> Region 4
Added edge: Region 39 <-> Region 5
Added edge: Region 8 <-> Region 7
Added edge: Region 12 <-> Region 40
Added edge: Region 13 <-> Region 14
Added edge: Region 42 <-> Region 66
Added edge: Region 20 <-> Region 44
Added edge: Region 23 <-> Region 48
Added edge: Region 26 <-> Region 69
Added edge: Region 49 <-> Region 70
Added edge: Region 49 <-> Region 71
Added edge: Region 31 <-> Region 73
Added edge: Region 54 <-> Region 74
Added edge: Region 55 <-> Region 77
Added edge: Region 59 <-> Region 79
Added edge: Region 60 <-> Region 80
Added edge: Region 61 <-> Region 80
Added edge: Region 62 <-> Region 81
Added edge: Region 14 <-> Region 64
Added edge: Region 41 <-> Region 89
Added edge: Region 65 <-> Region 90
Added edge: Region 17 <-> Region 91
Added edge: Region 67 <-> Region 43
Added edge: Region 20 <-> Region 92
Added edge: Region 47 <-> Region 46
Added edge: Region 48 <-> Region 93
Added edge: Region 70 <-> Region 69
Added edge: Region 71 <-> Region 50
Added edge: Region 50 <-> Region 95
Added edge: Region 72 <-> Region 97
Added edge: Region 52 <-> Region 98
Added edge: Region 74 <-> Region 99
Added edge: Region 75 <-> Region 100
Added edge: Region 81 <-> Region 82
Added edge: Region 40 <-> Region 103
Added edge: Region 40 <-> Region 104
Added edge: Region 89 <-> Region 105
Added edge: Region 90 <-> Region 106
Added edge: Region 65 <-> Region 106
Added edge: Region 91 <-> Region 65
Added edge: Region 91 <-> Region 107
Added edge: Region 66 <-> Region 108
Added edge: Region 66 <-> Region 109
Added edge: Region 92 <-> Region 67
Added edge: Region 44 <-> Region 110
Added edge: Region 47 <-> Region 93
Added edge: Region 94 <-> Region 111
Added edge: Region 25 <-> Region 112
Added edge: Region 70 <-> Region 113
Added edge: Region 72 <-> Region 115
Added edge: Region 73 <-> Region 97
Added edge: Region 99 <-> Region 118
Added edge: Region 101 <-> Region 119
Added edge: Region 61 <-> Region 123
Added edge: Region 84 <-> Region 124
Added edge: Region 9 <-> Region 127
Added edge: Region 104 <-> Region 103
Added edge: Region 105 <-> Region 128
Added edge: Region 106 <-> Region 129
Added edge: Region 65 <-> Region 129
Added edge: Region 107 <-> Region 65
Added edge: Region 19 <-> Region 130
Added edge: Region 109 <-> Region 43
Added edge: Region 68 <-> Region 131
Added edge: Region 112 <-> Region 133
Added edge: Region 115 <-> Region 114
Added edge: Region 115 <-> Region 134
Added edge: Region 72 <-> Region 134
Added edge: Region 73 <-> Region 135
Added edge: Region 98 <-> Region 136
Added edge: Region 98 <-> Region 116
Added edge: Region 101 <-> Region 139
Added edge: Region 121 <-> Region 140
Added edge: Region 122 <-> Region 141
Added edge: Region 80 <-> Region 144
Added edge: Region 83 <-> Region 82
Added edge: Region 124 <-> Region 145
Added edge: Region 124 <-> Region 146
Added edge: Region 85 <-> Region 147
Added edge: Region 130 <-> Region 148
Added edge: Region 69 <-> Region 153
Added edge: Region 96 <-> Region 154
Added edge: Region 114 <-> Region 154
Added edge: Region 134 <-> Region 114
Added edge: Region 134 <-> Region 155
Added edge: Region 97 <-> Region 155
Added edge: Region 117 <-> Region 156
Added edge: Region 118 <-> Region 137
Added edge: Region 138 <-> Region 137
Added edge: Region 138 <-> Region 157
Added edge: Region 139 <-> Region 158
Added edge: Region 120 <-> Region 160
Added edge: Region 141 <-> Region 161
Added edge: Region 142 <-> Region 161
Added edge: Region 143 <-> Region 144
Added edge: Region 125 <-> Region 147
Added edge: Region 125 <-> Region 165
Added edge: Region 14 <-> Region 168
Added edge: Region 129 <-> Region 169
Added edge: Region 43 <-> Region 170
Added edge: Region 67 <-> Region 171
Added edge: Region 110 <-> Region 171
Added edge: Region 132 <-> Region 172
Added edge: Region 152 <-> Region 173
Added edge: Region 153 <-> Region 174
Added edge: Region 69 <-> Region 175
Added edge: Region 95 <-> Region 176
Added edge: Region 114 <-> Region 177
Added edge: Region 136 <-> Region 178
Added edge: Region 116 <-> Region 178
Added edge: Region 118 <-> Region 156
Added edge: Region 138 <-> Region 179
Added edge: Region 157 <-> Region 179
Added edge: Region 157 <-> Region 180
Added edge: Region 159 <-> Region 160
Added edge: Region 160 <-> Region 182
Added edge: Region 161 <-> Region 185
Added edge: Region 102 <-> Region 167
Added edge: Region 103 <-> Region 188
Added edge: Region 168 <-> Region 188
Added edge: Region 168 <-> Region 189
Added edge: Region 148 <-> Region 190
Added edge: Region 148 <-> Region 191
Added edge: Region 172 <-> Region 192
Added edge: Region 173 <-> Region 193
Added edge: Region 133 <-> Region 194
Added edge: Region 175 <-> Region 174
Added edge: Region 155 <-> Region 177
Added edge: Region 179 <-> Region 197
Added edge: Region 180 <-> Region 197
Added edge: Region 181 <-> Region 198
Added edge: Region 159 <-> Region 198
Added edge: Region 162 <-> Region 201
Added edge: Region 186 <-> Region 187
Added edge: Region 7 <-> Region 127
Added edge: Region 9 <-> Region 10
Added edge: Region 189 <-> Region 188
Added edge: Region 190 <-> Region 107
Added edge: Region 67 <-> Region 209
Added edge: Region 192 <-> Region 210
Added edge: Region 174 <-> Region 214
Added edge: Region 95 <-> Region 216
Added edge: Region 154 <-> Region 217
Added edge: Region 177 <-> Region 217
Added edge: Region 116 <-> Region 218
Added edge: Region 160 <-> Region 219
Added edge: Region 183 <-> Region 220
Added edge: Region 184 <-> Region 220
Added edge: Region 199 <-> Region 185
Added edge: Region 200 <-> Region 201
Added edge: Region 205 <-> Region 223
Added edge: Region 63 <-> Region 206
Added edge: Region 207 <-> Region 226
Added edge: Region 128 <-> Region 227
Added edge: Region 131 <-> Region 230
Added edge: Region 210 <-> Region 232
Added edge: Region 211 <-> Region 212
Added edge: Region 213 <-> Region 233
Added edge: Region 214 <-> Region 234
Added edge: Region 196 <-> Region 215
Added edge: Region 216 <-> Region 236
Added edge: Region 73 <-> Region 237
Added edge: Region 137 <-> Region 238
Added edge: Region 198 <-> Region 219
Added edge: Region 220 <-> Region 241
Added edge: Region 185 <-> Region 241
Added edge: Region 202 <-> Region 244
Added edge: Region 169 <-> Region 245
Added edge: Region 228 <-> Region 246
Added edge: Region 209 <-> Region 170
Added edge: Region 209 <-> Region 248
Added edge: Region 171 <-> Region 248
Added edge: Region 131 <-> Region 249
Added edge: Region 233 <-> Region 212
Added edge: Region 234 <-> Region 250
Added edge: Region 235 <-> Region 251
Added edge: Region 217 <-> Region 253
Added edge: Region 135 <-> Region 254
Added edge: Region 178 <-> Region 255
Added edge: Region 218 <-> Region 255
Added edge: Region 156 <-> Region 256
Added edge: Region 137 <-> Region 256
Added edge: Region 238 <-> Region 257
Added edge: Region 239 <-> Region 258
Added edge: Region 198 <-> Region 259
Added edge: Region 219 <-> Region 259
Added edge: Region 219 <-> Region 240
Added edge: Region 182 <-> Region 240
Added edge: Region 182 <-> Region 183
Added edge: Region 221 <-> Region 201
Added edge: Region 221 <-> Region 261
Added edge: Region 222 <-> Region 261
Added edge: Region 242 <-> Region 262
Added edge: Region 103 <-> Region 267
Added edge: Region 226 <-> Region 268
Added edge: Region 107 <-> Region 269
Added edge: Region 229 <-> Region 270
Added edge: Region 170 <-> Region 271
Added edge: Region 210 <-> Region 231
Added edge: Region 232 <-> Region 272
Added edge: Region 251 <-> Region 273
Added edge: Region 177 <-> Region 253
Added edge: Region 237 <-> Region 155
Added edge: Region 257 <-> Region 275
Added edge: Region 257 <-> Region 258
Added edge: Region 259 <-> Region 276
Added edge: Region 259 <-> Region 240
Added edge: Region 185 <-> Region 277
Added edge: Region 261 <-> Region 278
Added edge: Region 262 <-> Region 279
Added edge: Region 263 <-> Region 280
Added edge: Region 263 <-> Region 243
Added edge: Region 267 <-> Region 206
Added edge: Region 227 <-> Region 282
Added edge: Region 269 <-> Region 283
Added edge: Region 247 <-> Region 284
Added edge: Region 271 <-> Region 284
Added edge: Region 249 <-> Region 286
Added edge: Region 155 <-> Region 289
Added edge: Region 254 <-> Region 290
Added edge: Region 275 <-> Region 258
Added edge: Region 276 <-> Region 292
Added edge: Region 277 <-> Region 294
Added edge: Region 277 <-> Region 260
Added edge: Region 278 <-> Region 295
Added edge: Region 279 <-> Region 296
Added edge: Region 280 <-> Region 297
Added edge: Region 243 <-> Region 297
Added edge: Region 264 <-> Region 265
Added edge: Region 281 <-> Region 298
Added edge: Region 103 <-> Region 299
Added edge: Region 65 <-> Region 301
Added edge: Region 283 <-> Region 301
Added edge: Region 284 <-> Region 302
Added edge: Region 284 <-> Region 303
Added edge: Region 271 <-> Region 303
Added edge: Region 248 <-> Region 304
Added edge: Region 286 <-> Region 285
Added edge: Region 231 <-> Region 305
Added edge: Region 212 <-> Region 306
Added edge: Region 273 <-> Region 287
Added edge: Region 253 <-> Region 308
Added edge: Region 289 <-> Region 253
Added edge: Region 178 <-> Region 310
Added edge: Region 256 <-> Region 311
Added edge: Region 256 <-> Region 312
Added edge: Region 291 <-> Region 313
Added edge: Region 291 <-> Region 275
Added edge: Region 240 <-> Region 292
Added edge: Region 241 <-> Region 315
Added edge: Region 241 <-> Region 316
Added edge: Region 294 <-> Region 316
Added edge: Region 294 <-> Region 260
Added edge: Region 201 <-> Region 317
Added edge: Region 201 <-> Region 318
Added edge: Region 295 <-> Region 296
Added edge: Region 296 <-> Region 319
Added edge: Region 244 <-> Region 264
Added edge: Region 266 <-> Region 320
Added edge: Region 127 <-> Region 321
Added edge: Region 245 <-> Region 322
Added edge: Region 300 <-> Region 245
Added edge: Region 303 <-> Region 302
Added edge: Region 306 <-> Region 272
Added edge: Region 307 <-> Region 324
Added edge: Region 253 <-> Region 326
Added edge: Region 289 <-> Region 327
Added edge: Region 309 <-> Region 327
Added edge: Region 309 <-> Region 328
Added edge: Region 312 <-> Region 330
Added edge: Region 312 <-> Region 331
Added edge: Region 313 <-> Region 331
Added edge: Region 292 <-> Region 314
Added edge: Region 315 <-> Region 332
Added edge: Region 316 <-> Region 332
Added edge: Region 317 <-> Region 260
Added edge: Region 317 <-> Region 333
Added edge: Region 201 <-> Region 333
Added edge: Region 201 <-> Region 334
Added edge: Region 297 <-> Region 319
Added edge: Region 297 <-> Region 335
Added edge: Region 243 <-> Region 335
Added edge: Region 244 <-> Region 336
Added edge: Region 321 <-> Region 338
Added edge: Region 321 <-> Region 339
Added edge: Region 127 <-> Region 339
Added edge: Region 10 <-> Region 340
Added edge: Region 299 <-> Region 206
Added edge: Region 323 <-> Region 341
Added edge: Region 212 <-> Region 342
Added edge: Region 325 <-> Region 344
Added edge: Region 327 <-> Region 347
Added edge: Region 255 <-> Region 348
Added edge: Region 330 <-> Region 349
Added edge: Region 330 <-> Region 331
Added edge: Region 275 <-> Region 350
Added edge: Region 275 <-> Region 351
Added edge: Region 258 <-> Region 351
Added edge: Region 201 <-> Region 352
Added edge: Region 334 <-> Region 353
Added edge: Region 243 <-> Region 336
Added edge: Region 320 <-> Region 355
Added edge: Region 320 <-> Region 356
Added edge: Region 339 <-> Region 338
Added edge: Region 127 <-> Region 357
Added edge: Region 300 <-> Region 359
Added edge: Region 304 <-> Region 362
Added edge: Region 342 <-> Region 272
Added edge: Region 342 <-> Region 364
Added edge: Region 212 <-> Region 364
Added edge: Region 343 <-> Region 365
Added edge: Region 324 <-> Region 365
Added edge: Region 346 <-> Region 345
Added edge: Region 331 <-> Region 368
Added edge: Region 350 <-> Region 368
Added edge: Region 351 <-> Region 314
Added edge: Region 292 <-> Region 369
Added edge: Region 332 <-> Region 371
Added edge: Region 260 <-> Region 372
Added edge: Region 333 <-> Region 260
Added edge: Region 352 <-> Region 353
Added edge: Region 353 <-> Region 373
Added edge: Region 244 <-> Region 374
Added edge: Region 354 <-> Region 374
Added edge: Region 354 <-> Region 265
Added edge: Region 355 <-> Region 356
Added edge: Region 357 <-> Region 338
Added edge: Region 357 <-> Region 375
Added edge: Region 127 <-> Region 375
Added edge: Region 63 <-> Region 10
Added edge: Region 188 <-> Region 268
Added edge: Region 359 <-> Region 377
Added edge: Region 341 <-> Region 377
Added edge: Region 341 <-> Region 378
Added edge: Region 360 <-> Region 378
Added edge: Region 285 <-> Region 381
Added edge: Region 363 <-> Region 382
Added edge: Region 272 <-> Region 383
Added edge: Region 367 <-> Region 386
Added edge: Region 369 <-> Region 314
Added edge: Region 369 <-> Region 388
Added edge: Region 292 <-> Region 388
Added edge: Region 335 <-> Region 319
Added edge: Region 374 <-> Region 265
Added edge: Region 345 <-> Region 393
Added edge: Region 345 <-> Region 394
Added edge: Region 314 <-> Region 397
Added edge: Region 372 <-> Region 371
Added edge: Region 353 <-> Region 390
Added edge: Region 373 <-> Region 399
Added edge: Region 265 <-> Region 392
Added edge: Region 401 <-> Region 429
Added edge: Region 405 <-> Region 404
Added edge: Region 409 <-> Region 430
Added edge: Region 409 <-> Region 431
Added edge: Region 410 <-> Region 432
Added edge: Region 414 <-> Region 413
Added edge: Region 415 <-> Region 434
Added edge: Region 416 <-> Region 434
Added edge: Region 416 <-> Region 417
Added edge: Region 419 <-> Region 435
Added edge: Region 421 <-> Region 436
Added edge: Region 423 <-> Region 422
Added edge: Region 426 <-> Region 437
Added edge: Region 426 <-> Region 427
Added edge: Region 428 <-> Region 464
Added edge: Region 403 <-> Region 465
Added edge: Region 431 <-> Region 466
Added edge: Region 432 <-> Region 466
Added edge: Region 411 <-> Region 467
Added edge: Region 433 <-> Region 469
Added edge: Region 433 <-> Region 470
Added edge: Region 413 <-> Region 471
Added edge: Region 415 <-> Region 472
Added edge: Region 434 <-> Region 472
Added edge: Region 434 <-> Region 417
Added edge: Region 435 <-> Region 418
Added edge: Region 419 <-> Region 473
Added edge: Region 420 <-> Region 473
Added edge: Region 436 <-> Region 420
Added edge: Region 422 <-> Region 474
Added edge: Region 423 <-> Region 474
Added edge: Region 424 <-> Region 425
Added edge: Region 437 <-> Region 427
Added edge: Region 438 <-> Region 427
Added edge: Region 441 <-> Region 440
Added edge: Region 443 <-> Region 475
Added edge: Region 445 <-> Region 446
Added edge: Region 446 <-> Region 477
Added edge: Region 447 <-> Region 478
Added edge: Region 448 <-> Region 480
Added edge: Region 450 <-> Region 449
Added edge: Region 452 <-> Region 453
Added edge: Region 458 <-> Region 484
Added edge: Region 459 <-> Region 484
Added edge: Region 459 <-> Region 460
Added edge: Region 428 <-> Region 485
Added edge: Region 429 <-> Region 485
Added edge: Region 406 <-> Region 487
Added edge: Region 412 <-> Region 469
Added edge: Region 470 <-> Region 469
Added edge: Region 470 <-> Region 488
Added edge: Region 415 <-> Region 489
Added edge: Region 472 <-> Region 417
Added edge: Region 473 <-> Region 435
Added edge: Region 474 <-> Region 490
Added edge: Region 442 <-> Region 475
Added edge: Region 476 <-> Region 444
Added edge: Region 445 <-> Region 491
Added edge: Region 446 <-> Region 491
Added edge: Region 477 <-> Region 492
Added edge: Region 449 <-> Region 495
Added edge: Region 451 <-> Region 496
Added edge: Region 452 <-> Region 496
Added edge: Region 454 <-> Region 481
Added edge: Region 482 <-> Region 454
Added edge: Region 483 <-> Region 497
Added edge: Region 456 <-> Region 498
Added edge: Region 431 <-> Region 504
Added edge: Region 412 <-> Region 505
Added edge: Region 471 <-> Region 488
Added edge: Region 420 <-> Region 435
Added edge: Region 425 <-> Region 506
Added edge: Region 439 <-> Region 438
Added edge: Region 475 <-> Region 507
Added edge: Region 444 <-> Region 507
Added edge: Region 491 <-> Region 508
Added edge: Region 492 <-> Region 509
Added edge: Region 493 <-> Region 510
Added edge: Region 493 <-> Region 494
Added edge: Region 495 <-> Region 512
Added edge: Region 453 <-> Region 481
Added edge: Region 455 <-> Region 515
Added edge: Region 457 <-> Region 516
Added edge: Region 484 <-> Region 460
Added edge: Region 488 <-> Region 469
Added edge: Region 420 <-> Region 522
Added edge: Region 420 <-> Region 523
Added edge: Region 436 <-> Region 523
Added edge: Region 440 <-> Region 526
Added edge: Region 475 <-> Region 527
Added edge: Region 508 <-> Region 528
Added edge: Region 509 <-> Region 528
Added edge: Region 509 <-> Region 529
Added edge: Region 513 <-> Region 531
Added edge: Region 497 <-> Region 533
Added edge: Region 497 <-> Region 514
Added edge: Region 515 <-> Region 514
Added edge: Region 515 <-> Region 534
Added edge: Region 462 <-> Region 463
Added edge: Region 519 <-> Region 536
Added edge: Region 520 <-> Region 538
Added edge: Region 520 <-> Region 539
Added edge: Region 523 <-> Region 522
Added edge: Region 525 <-> Region 524
Added edge: Region 525 <-> Region 545
Added edge: Region 440 <-> Region 546
Added edge: Region 440 <-> Region 547
Added edge: Region 526 <-> Region 547
Added edge: Region 526 <-> Region 548
Added edge: Region 494 <-> Region 549
Added edge: Region 530 <-> Region 551
Added edge: Region 481 <-> Region 553
Added edge: Region 454 <-> Region 533
Added edge: Region 456 <-> Region 554
Added edge: Region 516 <-> Region 555
Added edge: Region 463 <-> Region 556
Added edge: Region 499 <-> Region 557
Added edge: Region 499 <-> Region 500
Added edge: Region 518 <-> Region 558
Added edge: Region 539 <-> Region 538
Added edge: Region 542 <-> Region 559
Added edge: Region 543 <-> Region 559
Added edge: Region 524 <-> Region 568
Added edge: Region 545 <-> Region 568
Added edge: Region 427 <-> Region 569
Added edge: Region 547 <-> Region 570
Added edge: Region 548 <-> Region 570
Added edge: Region 548 <-> Region 527
Added edge: Region 527 <-> Region 571
Added edge: Region 507 <-> Region 571
Added edge: Region 528 <-> Region 573
Added edge: Region 529 <-> Region 573
Added edge: Region 550 <-> Region 574
Added edge: Region 550 <-> Region 575
Added edge: Region 551 <-> Region 575
Added edge: Region 552 <-> Region 577
Added edge: Region 553 <-> Region 578
Added edge: Region 481 <-> Region 578
Added edge: Region 534 <-> Region 514
Added edge: Region 498 <-> Region 579
Added edge: Region 541 <-> Region 540
Added edge: Region 560 <-> Region 544
Added edge: Region 562 <-> Region 581
Added edge: Region 563 <-> Region 581
Added edge: Region 565 <-> Region 564
Added edge: Region 567 <-> Region 566
Added edge: Region 567 <-> Region 582
Added edge: Region 570 <-> Region 527
Added edge: Region 527 <-> Region 589
Added edge: Region 571 <-> Region 589
Added edge: Region 571 <-> Region 590
Added edge: Region 574 <-> Region 549
Added edge: Region 574 <-> Region 592
Added edge: Region 575 <-> Region 592
Added edge: Region 578 <-> Region 596
Added edge: Region 454 <-> Region 597
Added edge: Region 554 <-> Region 579
Added edge: Region 555 <-> Region 598
Added edge: Region 484 <-> Region 599
Added edge: Region 537 <-> Region 536
Added edge: Region 543 <-> Region 544
Added edge: Region 561 <-> Region 602
Added edge: Region 584 <-> Region 583
Added edge: Region 584 <-> Region 603
Added edge: Region 585 <-> Region 604
Added edge: Region 587 <-> Region 610
Added edge: Region 575 <-> Region 612
Added edge: Region 576 <-> Region 612
Added edge: Region 533 <-> Region 613
Added edge: Region 500 <-> Region 615
Added edge: Region 558 <-> Region 600
Added edge: Region 558 <-> Region 536
Added edge: Region 564 <-> Region 616
Added edge: Region 582 <-> Region 583
Added edge: Region 603 <-> Region 583
Added edge: Region 604 <-> Region 617
Added edge: Region 605 <-> Region 619
Added edge: Region 608 <-> Region 620
Added edge: Region 609 <-> Region 621
Added edge: Region 549 <-> Region 627
Added edge: Region 592 <-> Region 627
Added edge: Region 514 <-> Region 633
Added edge: Region 579 <-> Region 633
Added edge: Region 461 <-> Region 460
Added edge: Region 614 <-> Region 635
Added edge: Region 615 <-> Region 635
Added edge: Region 542 <-> Region 541
Added edge: Region 544 <-> Region 636
Added edge: Region 616 <-> Region 563
Added edge: Region 616 <-> Region 637
Added edge: Region 564 <-> Region 637
Added edge: Region 564 <-> Region 638
Added edge: Region 583 <-> Region 639
Added edge: Region 618 <-> Region 604
Added edge: Region 608 <-> Region 642
Added edge: Region 610 <-> Region 622
Added edge: Region 623 <-> Region 622
Added edge: Region 625 <-> Region 644
Added edge: Region 627 <-> Region 648
Added edge: Region 595 <-> Region 649
Added edge: Region 599 <-> Region 654
Added edge: Region 460 <-> Region 654
Added edge: Region 557 <-> Region 655
Added edge: Region 559 <-> Region 636
Added edge: Region 601 <-> Region 657
Added edge: Region 601 <-> Region 658
Added edge: Region 581 <-> Region 659
Added edge: Region 581 <-> Region 660
Added edge: Region 563 <-> Region 660
Added edge: Region 637 <-> Region 563
Added edge: Region 637 <-> Region 661
Added edge: Region 638 <-> Region 661
Added edge: Region 619 <-> Region 618
Added edge: Region 622 <-> Region 663
Added edge: Region 626 <-> Region 665
Added edge: Region 648 <-> Region 667
Added edge: Region 579 <-> Region 674
Added edge: Region 634 <-> Region 653
Added edge: Region 536 <-> Region 677
Added edge: Region 538 <-> Region 677
Added edge: Region 659 <-> Region 658
Added edge: Region 659 <-> Region 678
Added edge: Region 660 <-> Region 678
Added edge: Region 661 <-> Region 563
Added edge: Region 661 <-> Region 679
Added edge: Region 566 <-> Region 680
Added edge: Region 617 <-> Region 681
Added edge: Region 663 <-> Region 683
Added edge: Region 646 <-> Region 685
Added edge: Region 666 <-> Region 686
Added edge: Region 647 <-> Region 686
Added edge: Region 648 <-> Region 687
Added edge: Region 668 <-> Region 688
Added edge: Region 669 <-> Region 689
Added edge: Region 670 <-> Region 689
Added edge: Region 671 <-> Region 690
Added edge: Region 673 <-> Region 672
Added edge: Region 635 <-> Region 698
Added edge: Region 540 <-> Region 700
Added edge: Region 679 <-> Region 563
Added edge: Region 618 <-> Region 701
Added edge: Region 641 <-> Region 702
Added edge: Region 684 <-> Region 703
Added edge: Region 687 <-> Region 708
Added edge: Region 688 <-> Region 709
Added edge: Region 689 <-> Region 709
Added edge: Region 689 <-> Region 710
Added edge: Region 691 <-> Region 673
Added edge: Region 691 <-> Region 711
Added edge: Region 692 <-> Region 711
Added edge: Region 692 <-> Region 693
Added edge: Region 694 <-> Region 712
Added edge: Region 695 <-> Region 713
Added edge: Region 600 <-> Region 717
Added edge: Region 600 <-> Region 718
Added edge: Region 657 <-> Region 719
Added edge: Region 658 <-> Region 719
Added edge: Region 563 <-> Region 678
Added edge: Region 705 <-> Region 704
Added edge: Region 705 <-> Region 706
Added edge: Region 648 <-> Region 725
Added edge: Region 708 <-> Region 725
Added edge: Region 690 <-> Region 710
Added edge: Region 672 <-> Region 726
Added edge: Region 711 <-> Region 693
Added edge: Region 712 <-> Region 693
Added edge: Region 713 <-> Region 728
Added edge: Region 714 <-> Region 730
Added edge: Region 718 <-> Region 734
Added edge: Region 678 <-> Region 735
Added edge: Region 563 <-> Region 736
Added edge: Region 720 <-> Region 736
Added edge: Region 639 <-> Region 737
Added edge: Region 701 <-> Region 617
Added edge: Region 619 <-> Region 701
Added edge: Region 683 <-> Region 738
Added edge: Region 663 <-> Region 739
Added edge: Region 707 <-> Region 741
Added edge: Region 707 <-> Region 723
Added edge: Region 724 <-> Region 742
Added edge: Region 709 <-> Region 745
Added edge: Region 710 <-> Region 745
Added edge: Region 673 <-> Region 746
Added edge: Region 711 <-> Region 746
Added edge: Region 727 <-> Region 728
Added edge: Region 696 <-> Region 747
Added edge: Region 729 <-> Region 748
Added edge: Region 730 <-> Region 748
Added edge: Region 730 <-> Region 731
Added edge: Region 732 <-> Region 750
Added edge: Region 717 <-> Region 699
Added edge: Region 734 <-> Region 717
Added edge: Region 737 <-> Region 753
Added edge: Region 639 <-> Region 753
Added edge: Region 702 <-> Region 755
Added edge: Region 706 <-> Region 758
Added edge: Region 740 <-> Region 758
Added edge: Region 741 <-> Region 723
Added edge: Region 742 <-> Region 759
Added edge: Region 709 <-> Region 762
Added edge: Region 747 <-> Region 728
Added edge: Region 749 <-> Region 764
Added edge: Region 655 <-> Region 767
Added edge: Region 736 <-> Region 769
Added edge: Region 701 <-> Region 770
Added edge: Region 721 <-> Region 738
Added edge: Region 683 <-> Region 772
Added edge: Region 704 <-> Region 757
Added edge: Region 704 <-> Region 773
Added edge: Region 758 <-> Region 774
Added edge: Region 723 <-> Region 775
Added edge: Region 762 <-> Region 761
Added edge: Region 762 <-> Region 778
Added edge: Region 746 <-> Region 780
Added edge: Region 693 <-> Region 780
Added edge: Region 677 <-> Region 784
Added edge: Region 719 <-> Region 785
Added edge: Region 756 <-> Region 721
Added edge: Region 738 <-> Region 786
Added edge: Region 772 <-> Region 786
Added edge: Region 777 <-> Region 787
Added edge: Region 761 <-> Region 788
Added edge: Region 728 <-> Region 791
Added edge: Region 763 <-> Region 791
Added edge: Region 781 <-> Region 792
Added edge: Region 782 <-> Region 793
Added edge: Region 765 <-> Region 794
Added edge: Region 783 <-> Region 765
Added edge: Region 752 <-> Region 796
Added edge: Region 735 <-> Region 798
Added edge: Region 769 <-> Region 799
Added edge: Region 770 <-> Region 800
Added edge: Region 788 <-> Region 805
Added edge: Region 761 <-> Region 806
Added edge: Region 778 <-> Region 806
Added edge: Region 789 <-> Region 790
Added edge: Region 792 <-> Region 811
Added edge: Region 752 <-> Region 784
Added edge: Region 798 <-> Region 816
Added edge: Region 799 <-> Region 816
Added edge: Region 800 <-> Region 818
Added edge: Region 800 <-> Region 819
Added edge: Region 801 <-> Region 819
Added edge: Region 721 <-> Region 821
Added edge: Region 759 <-> Region 822
Added edge: Region 804 <-> Region 822
Added edge: Region 787 <-> Region 823
Added edge: Region 790 <-> Region 824
Added edge: Region 808 <-> Region 807
Added edge: Region 808 <-> Region 809
Added edge: Region 793 <-> Region 812
Added edge: Region 767 <-> Region 751
Added edge: Region 635 <-> Region 828
Added edge: Region 717 <-> Region 796
Added edge: Region 636 <-> Region 830
Added edge: Region 799 <-> Region 831
Added edge: Region 769 <-> Region 831
Added edge: Region 817 <-> Region 832
Added edge: Region 753 <-> Region 832
Added edge: Region 771 <-> Region 802
Added edge: Region 821 <-> Region 820
Added edge: Region 786 <-> Region 834
Added edge: Region 786 <-> Region 835
Added edge: Region 823 <-> Region 805
Added edge: Region 807 <-> Region 824
Added edge: Region 813 <-> Region 843
Added edge: Region 795 <-> Region 844
Added edge: Region 829 <-> Region 846
Added edge: Region 816 <-> Region 847
Added edge: Region 832 <-> Region 849
Added edge: Region 753 <-> Region 849
Added edge: Region 681 <-> Region 850
Added edge: Region 818 <-> Region 833
Added edge: Region 818 <-> Region 819
Added edge: Region 820 <-> Region 851
Added edge: Region 803 <-> Region 836
Added edge: Region 803 <-> Region 854
Added edge: Region 822 <-> Region 855
Added edge: Region 805 <-> Region 856
Added edge: Region 838 <-> Region 856
Added edge: Region 789 <-> Region 857
Added edge: Region 839 <-> Region 825
Added edge: Region 825 <-> Region 860
Added edge: Region 840 <-> Region 860
Added edge: Region 845 <-> Region 784
Added edge: Region 785 <-> Region 866
Added edge: Region 831 <-> Region 816
Added edge: Region 831 <-> Region 867
Added edge: Region 769 <-> Region 867
Added edge: Region 769 <-> Region 848
Added edge: Region 849 <-> Region 868
Added edge: Region 681 <-> Region 869
Added edge: Region 850 <-> Region 869
Added edge: Region 850 <-> Region 833
Added edge: Region 818 <-> Region 870
Added edge: Region 852 <-> Region 851
Added edge: Region 853 <-> Region 871
Added edge: Region 723 <-> Region 854
Added edge: Region 775 <-> Region 872
Added edge: Region 805 <-> Region 873
Added edge: Region 778 <-> Region 874
Added edge: Region 857 <-> Region 875
Added edge: Region 790 <-> Region 875
Added edge: Region 790 <-> Region 876
Added edge: Region 824 <-> Region 876
Added edge: Region 824 <-> Region 877
Added edge: Region 841 <-> Region 840
Added edge: Region 767 <-> Region 828
Added edge: Region 698 <-> Region 882
Added edge: Region 784 <-> Region 883
Added edge: Region 864 <-> Region 884
Added edge: Region 846 <-> Region 884
Added edge: Region 785 <-> Region 886
Added edge: Region 866 <-> Region 886
Added edge: Region 866 <-> Region 887
Added edge: Region 867 <-> Region 816
Added edge: Region 868 <-> Region 848
Added edge: Region 868 <-> Region 888
Added edge: Region 681 <-> Region 889
Added edge: Region 869 <-> Region 889
Added edge: Region 869 <-> Region 833
Added edge: Region 870 <-> Region 833
Added edge: Region 819 <-> Region 890
Added edge: Region 771 <-> Region 891
Added edge: Region 802 <-> Region 891
Added edge: Region 775 <-> Region 892
Added edge: Region 874 <-> Region 893
Added edge: Region 875 <-> Region 895
Added edge: Region 790 <-> Region 895
Added edge: Region 876 <-> Region 877
Added edge: Region 877 <-> Region 896
Added edge: Region 859 <-> Region 897
Added edge: Region 841 <-> Region 898
Added edge: Region 842 <-> Region 898
Added edge: Region 863 <-> Region 879
Added edge: Region 880 <-> Region 863
Added edge: Region 767 <-> Region 903
Added edge: Region 828 <-> Region 882
Added edge: Region 699 <-> Region 904
Added edge: Region 636 <-> Region 905
Added edge: Region 785 <-> Region 906
Added edge: Region 886 <-> Region 906
Added edge: Region 886 <-> Region 887
Added edge: Region 681 <-> Region 907
Added edge: Region 889 <-> Region 833
Added edge: Region 891 <-> Region 908
Added edge: Region 834 <-> Region 910
Added edge: Region 854 <-> Region 913
Added edge: Region 855 <-> Region 914
Added edge: Region 893 <-> Region 915
Added edge: Region 878 <-> Region 896
Added edge: Region 858 <-> Region 878
Added edge: Region 858 <-> Region 897
Added edge: Region 825 <-> Region 897
Added edge: Region 879 <-> Region 899
Added edge: Region 880 <-> Region 916
Added edge: Region 881 <-> Region 916
Added edge: Region 828 <-> Region 917
Added edge: Region 699 <-> Region 918
Added edge: Region 796 <-> Region 918
Added edge: Region 865 <-> Region 919
Added edge: Region 905 <-> Region 920
Added edge: Region 906 <-> Region 887
Added edge: Region 907 <-> Region 921
Added edge: Region 834 <-> Region 922
Added edge: Region 834 <-> Region 923
Added edge: Region 910 <-> Region 923
Added edge: Region 911 <-> Region 924
Added edge: Region 723 <-> Region 926
Added edge: Region 892 <-> Region 872
Added edge: Region 915 <-> Region 838
Added edge: Region 796 <-> Region 883
Added edge: Region 830 <-> Region 929
Added edge: Region 847 <-> Region 930
Added edge: Region 847 <-> Region 931
Added edge: Region 816 <-> Region 931
Added edge: Region 888 <-> Region 848
Added edge: Region 753 <-> Region 932
Added edge: Region 889 <-> Region 921
Added edge: Region 890 <-> Region 933
Added edge: Region 922 <-> Region 934
Added edge: Region 923 <-> Region 935
Added edge: Region 923 <-> Region 936
Added edge: Region 924 <-> Region 937
Added edge: Region 926 <-> Region 892
Added edge: Region 872 <-> Region 939
Added edge: Region 927 <-> Region 941
Added edge: Region 877 <-> Region 942
Added edge: Region 878 <-> Region 943
Added edge: Region 897 <-> Region 945
Added edge: Region 897 <-> Region 946
Added edge: Region 825 <-> Region 946
Added edge: Region 863 <-> Region 947
Added edge: Region 902 <-> Region 951
Added edge: Region 882 <-> Region 952
Added edge: Region 784 <-> Region 953
Added edge: Region 905 <-> Region 929
Added edge: Region 931 <-> Region 930
Added edge: Region 931 <-> Region 954
Added edge: Region 816 <-> Region 954
Added edge: Region 932 <-> Region 888
Added edge: Region 932 <-> Region 955
Added edge: Region 753 <-> Region 955
Added edge: Region 753 <-> Region 956
Added edge: Region 921 <-> Region 957
Added edge: Region 908 <-> Region 909
Added edge: Region 851 <-> Region 909
Added edge: Region 851 <-> Region 959
Added edge: Region 935 <-> Region 960
Added edge: Region 936 <-> Region 960
Added edge: Region 937 <-> Region 961
Added edge: Region 892 <-> Region 962
Added edge: Region 873 <-> Region 963
Added edge: Region 873 <-> Region 964
Added edge: Region 856 <-> Region 964
Added edge: Region 856 <-> Region 965
Added edge: Region 942 <-> Region 941
Added edge: Region 896 <-> Region 968
Added edge: Region 896 <-> Region 969
Added edge: Region 943 <-> Region 969
Added edge: Region 945 <-> Region 944
Added edge: Region 945 <-> Region 970
Added edge: Region 946 <-> Region 970
Added edge: Region 917 <-> Region 952
Added edge: Region 918 <-> Region 972
Added edge: Region 920 <-> Region 973
Added edge: Region 929 <-> Region 974
Added edge: Region 887 <-> Region 975
Added edge: Region 954 <-> Region 930
Added edge: Region 921 <-> Region 976
Added edge: Region 933 <-> Region 977
Added edge: Region 933 <-> Region 978
Added edge: Region 934 <-> Region 980
Added edge: Region 961 <-> Region 981
Added edge: Region 961 <-> Region 925
Added edge: Region 925 <-> Region 982
Added edge: Region 938 <-> Region 983
Added edge: Region 962 <-> Region 986
Added edge: Region 873 <-> Region 987
Added edge: Region 964 <-> Region 987
Added edge: Region 942 <-> Region 968
Added edge: Region 948 <-> Region 947
Added edge: Region 904 <-> Region 993
Added edge: Region 883 <-> Region 994
Added edge: Region 953 <-> Region 994
Added edge: Region 919 <-> Region 884
Added edge: Region 888 <-> Region 995
Added edge: Region 833 <-> Region 976
Added edge: Region 833 <-> Region 997
Added edge: Region 979 <-> Region 958
Added edge: Region 960 <-> Region 980
Added edge: Region 960 <-> Region 981
Added edge: Region 981 <-> Region 925
Added edge: Region 985 <-> Region 984
Added edge: Region 985 <-> Region 999
Added edge: Region 939 <-> Region 1000
Added edge: Region 987 <-> Region 1001
Added edge: Region 965 <-> Region 1002
Added edge: Region 966 <-> Region 940
Added edge: Region 941 <-> Region 1003
Added edge: Region 989 <-> Region 988
Added edge: Region 991 <-> Region 1008
Added edge: Region 884 <-> Region 1009
Added edge: Region 816 <-> Region 1010
Added edge: Region 996 <-> Region 995
Added edge: Region 957 <-> Region 1011
Added edge: Region 976 <-> Region 1011
Added edge: Region 998 <-> Region 1012
Added edge: Region 959 <-> Region 980
Added edge: Region 965 <-> Region 1001
Added edge: Region 940 <-> Region 1016
Added edge: Region 967 <-> Region 1016
Added edge: Region 1006 <-> Region 1022
Added edge: Region 993 <-> Region 1025
Added edge: Region 972 <-> Region 1025
Added edge: Region 883 <-> Region 1026
Added edge: Region 974 <-> Region 1027
Added edge: Region 848 <-> Region 1010
Added edge: Region 848 <-> Region 1028
Added edge: Region 995 <-> Region 1028
Added edge: Region 997 <-> Region 977
Added edge: Region 981 <-> Region 1030
Added edge: Region 981 <-> Region 1031
Added edge: Region 925 <-> Region 1031
Added edge: Region 925 <-> Region 1032
Added edge: Region 1014 <-> Region 1034
Added edge: Region 914 <-> Region 1035
Added edge: Region 1017 <-> Region 1039
Added edge: Region 1017 <-> Region 1018
Added edge: Region 988 <-> Region 1020
Added edge: Region 971 <-> Region 1040
Added edge: Region 1022 <-> Region 1021
Added edge: Region 1007 <-> Region 1041
Added edge: Region 884 <-> Region 1042
Added edge: Region 930 <-> Region 1044
Added edge: Region 1010 <-> Region 1045
Added edge: Region 997 <-> Region 1046
Added edge: Region 1029 <-> Region 1048
Added edge: Region 1031 <-> Region 1050
Added edge: Region 1032 <-> Region 1050
Added edge: Region 1032 <-> Region 1013
Added edge: Region 983 <-> Region 1013
Added edge: Region 1035 <-> Region 1051
Added edge: Region 1037 <-> Region 1038
Added edge: Region 1039 <-> Region 1038
Added edge: Region 1018 <-> Region 1054
Added edge: Region 1019 <-> Region 1054
Added edge: Region 1020 <-> Region 1056
Added edge: Region 1020 <-> Region 1057
Added edge: Region 1008 <-> Region 1058
Added edge: Region 973 <-> Region 1043
Added edge: Region 1011 <-> Region 1061
Added edge: Region 1011 <-> Region 1062
Added edge: Region 1046 <-> Region 1062
Added edge: Region 1046 <-> Region 1063
Added edge: Region 997 <-> Region 1063
Added edge: Region 1047 <-> Region 1064
Added edge: Region 1012 <-> Region 1048
Added edge: Region 1012 <-> Region 1065
Added edge: Region 1050 <-> Region 1013
Added edge: Region 1034 <-> Region 1067
Added edge: Region 1015 <-> Region 1069
Added edge: Region 1036 <-> Region 1071
Added edge: Region 1037 <-> Region 1036
Added edge: Region 1055 <-> Region 1073
Added edge: Region 993 <-> Region 952
Added edge: Region 1025 <-> Region 1059
Added edge: Region 1060 <-> Region 1059
Added edge: Region 973 <-> Region 1076
Added edge: Region 1043 <-> Region 1077
Added edge: Region 1027 <-> Region 1078
Added edge: Region 1044 <-> Region 975
Added edge: Region 1044 <-> Region 1079
Added edge: Region 1045 <-> Region 1080
Added edge: Region 1061 <-> Region 1081
Added edge: Region 1063 <-> Region 1062
Added edge: Region 977 <-> Region 1082
Added edge: Region 1029 <-> Region 1047
Added edge: Region 1050 <-> Region 1084
Added edge: Region 1066 <-> Region 1086
Added edge: Region 1070 <-> Region 1069
Added edge: Region 1070 <-> Region 1089
Added edge: Region 1052 <-> Region 1089
Added edge: Region 1052 <-> Region 1053
Added edge: Region 1038 <-> Region 1090
Added edge: Region 1018 <-> Region 1090
Added edge: Region 1072 <-> Region 1091
Added edge: Region 1055 <-> Region 1092
Added edge: Region 1021 <-> Region 1040
Added edge: Region 1022 <-> Region 1094
Added edge: Region 990 <-> Region 1095
Added edge: Region 917 <-> Region 1097
Added edge: Region 1076 <-> Region 1098
Added edge: Region 973 <-> Region 1099
Added edge: Region 996 <-> Region 1101
Added edge: Region 1062 <-> Region 1102
Added edge: Region 1082 <-> Region 1103
Added edge: Region 1083 <-> Region 1105
Added edge: Region 1071 <-> Region 1112
Added edge: Region 1036 <-> Region 1113
Added edge: Region 1093 <-> Region 1092
Added edge: Region 1097 <-> Region 1096
Added edge: Region 1060 <-> Region 1075
Added edge: Region 973 <-> Region 1118
Added edge: Region 1099 <-> Region 1118
Added edge: Region 1099 <-> Region 1119
Added edge: Region 1043 <-> Region 1119
Added edge: Region 1078 <-> Region 1077
Added edge: Region 1078 <-> Region 1120
Added edge: Region 975 <-> Region 1120
Added edge: Region 975 <-> Region 1121
Added edge: Region 1028 <-> Region 1123
Added edge: Region 995 <-> Region 1123
Added edge: Region 1102 <-> Region 1124
Added edge: Region 1062 <-> Region 1125
Added edge: Region 1103 <-> Region 1126
Added edge: Region 1065 <-> Region 1104
Added edge: Region 1109 <-> Region 1108
Added edge: Region 1109 <-> Region 1110
Added edge: Region 1087 <-> Region 1111
Added edge: Region 1053 <-> Region 1130
Added edge: Region 1071 <-> Region 1131
Added edge: Region 1113 <-> Region 1131
Added edge: Region 1113 <-> Region 1132
Added edge: Region 1038 <-> Region 1132
Added edge: Region 1092 <-> Region 1114
Added edge: Region 1093 <-> Region 1115
Added edge: Region 990 <-> Region 1134
Added edge: Region 992 <-> Region 1136
Added edge: Region 952 <-> Region 1137
Added edge: Region 1122 <-> Region 1138
Added edge: Region 1125 <-> Region 1140
Added edge: Region 1126 <-> Region 1140
Added edge: Region 1126 <-> Region 1141
Added edge: Region 1103 <-> Region 1141
Added edge: Region 1105 <-> Region 1142
Added edge: Region 1069 <-> Region 1144
Added edge: Region 1132 <-> Region 1131
Added edge: Region 1038 <-> Region 1145
Added edge: Region 1090 <-> Region 1145
Added edge: Region 1133 <-> Region 1148
Added edge: Region 1133 <-> Region 1114
Added edge: Region 1093 <-> Region 1149
Added edge: Region 1040 <-> Region 1151
Added edge: Region 1021 <-> Region 1152
Added edge: Region 1136 <-> Region 1153
Added edge: Region 1059 <-> Region 1154
Added edge: Region 1077 <-> Region 1156
Added edge: Region 1079 <-> Region 1100
Added edge: Region 1102 <-> Region 1158
Added edge: Region 1125 <-> Region 1158
Added edge: Region 1143 <-> Region 1162
Added edge: Region 1127 <-> Region 1164
Added edge: Region 1108 <-> Region 1107
Added edge: Region 1108 <-> Region 1165
Added edge: Region 1110 <-> Region 1165
Added edge: Region 1144 <-> Region 1166
Added edge: Region 1147 <-> Region 1146
Added edge: Region 1114 <-> Region 1169
Added edge: Region 1092 <-> Region 1170
Added edge: Region 1149 <-> Region 1170
Added edge: Region 1149 <-> Region 1171
Added edge: Region 1093 <-> Region 1171
Added edge: Region 1115 <-> Region 1116
Added edge: Region 1151 <-> Region 1150
Added edge: Region 1152 <-> Region 1172
Added edge: Region 1134 <-> Region 1173
Added edge: Region 1095 <-> Region 1173
Added edge: Region 1137 <-> Region 1176
Added edge: Region 1137 <-> Region 1177
Added edge: Region 952 <-> Region 1177
Added edge: Region 1075 <-> Region 1154
Added edge: Region 1155 <-> Region 1178
Added edge: Region 1120 <-> Region 1180
Added edge: Region 1079 <-> Region 1121
Added edge: Region 1139 <-> Region 1181
Added edge: Region 1159 <-> Region 1184
Added edge: Region 1161 <-> Region 1186
Added edge: Region 1162 <-> Region 1187
Added edge: Region 1127 <-> Region 1163
Added edge: Region 1107 <-> Region 1189
Added edge: Region 1166 <-> Region 1111
Added edge: Region 1166 <-> Region 1190
Added edge: Region 1131 <-> Region 1192
Added edge: Region 1170 <-> Region 1114
Added edge: Region 1150 <-> Region 1193
Added edge: Region 1021 <-> Region 1194
Added edge: Region 1172 <-> Region 1195
Added edge: Region 1095 <-> Region 1196
Added edge: Region 1135 <-> Region 1197
Added edge: Region 1096 <-> Region 1198
Added edge: Region 1176 <-> Region 1199
Added edge: Region 1177 <-> Region 1199
Added edge: Region 1179 <-> Region 1200
Added edge: Region 1121 <-> Region 1180
Added edge: Region 1124 <-> Region 1201
Added edge: Region 1182 <-> Region 1204
Added edge: Region 1185 <-> Region 1205
Added edge: Region 1187 <-> Region 1188
Added edge: Region 1163 <-> Region 1188
Added edge: Region 1163 <-> Region 1207
Added edge: Region 1127 <-> Region 1207
Added edge: Region 1190 <-> Region 1208
Added edge: Region 1191 <-> Region 1208
Added edge: Region 1191 <-> Region 1209
Added edge: Region 1089 <-> Region 1210
Added edge: Region 1146 <-> Region 1212
Added edge: Region 1148 <-> Region 1212
Added edge: Region 1148 <-> Region 1169
Added edge: Region 1193 <-> Region 1116
Added edge: Region 1175 <-> Region 1198
Added edge: Region 1199 <-> Region 1214
Added edge: Region 1178 <-> Region 1215
Added edge: Region 1178 <-> Region 1216
Added edge: Region 1180 <-> Region 1218
Added edge: Region 1202 <-> Region 1222
Added edge: Region 1203 <-> Region 1222
Added edge: Region 1203 <-> Region 1223
Added edge: Region 1204 <-> Region 1224
Added edge: Region 1206 <-> Region 1226
Added edge: Region 1186 <-> Region 1226
Added edge: Region 1186 <-> Region 1227
Added edge: Region 1207 <-> Region 1188
Added edge: Region 1107 <-> Region 1228
Added edge: Region 1165 <-> Region 1228
Added edge: Region 1165 <-> Region 1229
Added edge: Region 1209 <-> Region 1208
Added edge: Region 1146 <-> Region 1233
Added edge: Region 1212 <-> Region 1234
Added edge: Region 1169 <-> Region 1234
Added edge: Region 1115 <-> Region 1235
Added edge: Region 1150 <-> Region 1236
Added edge: Region 1153 <-> Region 1239
Added edge: Region 1218 <-> Region 1217
Added edge: Region 1079 <-> Region 1241
Added edge: Region 1219 <-> Region 1244
Added edge: Region 1220 <-> Region 1245
Added edge: Region 1201 <-> Region 1246
Added edge: Region 1201 <-> Region 1247
Added edge: Region 1202 <-> Region 1247
Added edge: Region 1128 <-> Region 1164
Added edge: Region 1128 <-> Region 1250
Added edge: Region 1189 <-> Region 1250
Added edge: Region 1189 <-> Region 1251
Added edge: Region 1107 <-> Region 1251
Added edge: Region 1111 <-> Region 1252
Added edge: Region 1230 <-> Region 1254
Added edge: Region 1213 <-> Region 1255
Added edge: Region 1213 <-> Region 1256
Added edge: Region 1237 <-> Region 1256
Added edge: Region 1237 <-> Region 1238
Added edge: Region 993 <-> Region 1257
Added edge: Region 1075 <-> Region 1258
Added edge: Region 1242 <-> Region 1243
Added edge: Region 1243 <-> Region 1260
Added edge: Region 1246 <-> Region 1221
Added edge: Region 1247 <-> Region 1246
Added edge: Region 1249 <-> Region 1261
Added edge: Region 1205 <-> Region 1262
Added edge: Region 1227 <-> Region 1188
Added edge: Region 1188 <-> Region 1264
Added edge: Region 1164 <-> Region 1264
Added edge: Region 1111 <-> Region 1265
Added edge: Region 1208 <-> Region 1266
Added edge: Region 1253 <-> Region 1267
Added edge: Region 1254 <-> Region 1267
Added edge: Region 1232 <-> Region 1269
Added edge: Region 1233 <-> Region 1232
Added edge: Region 1114 <-> Region 1270
Added edge: Region 1194 <-> Region 1271
Added edge: Region 1256 <-> Region 1238
Added edge: Region 1198 <-> Region 1214
Added edge: Region 1257 <-> Region 1275
Added edge: Region 1259 <-> Region 1279
Added edge: Region 1243 <-> Region 1280
Added edge: Region 1260 <-> Region 1280
Added edge: Region 1248 <-> Region 1282
Added edge: Region 1263 <-> Region 1283
Added edge: Region 1227 <-> Region 1283
Added edge: Region 1228 <-> Region 1284
Added edge: Region 1253 <-> Region 1286
Added edge: Region 1267 <-> Region 1287
Added edge: Region 1271 <-> Region 1150
Added edge: Region 1255 <-> Region 1288
Added edge: Region 1275 <-> Region 1290
Added edge: Region 1277 <-> Region 1276
Added edge: Region 1279 <-> Region 1278
Added edge: Region 1280 <-> Region 1294
Added edge: Region 1281 <-> Region 1294
Added edge: Region 1248 <-> Region 1297
Added edge: Region 1205 <-> Region 1298
Added edge: Region 1263 <-> Region 1300
Added edge: Region 1283 <-> Region 1300
Added edge: Region 1283 <-> Region 1188
Added edge: Region 1164 <-> Region 1301
Added edge: Region 1250 <-> Region 1302
Added edge: Region 1265 <-> Region 1303
Added edge: Region 1286 <-> Region 1266
Added edge: Region 1269 <-> Region 1306
Added edge: Region 1269 <-> Region 1307
Added edge: Region 1232 <-> Region 1307
Added edge: Region 1169 <-> Region 1308
Added edge: Region 1116 <-> Region 1309
Added edge: Region 1236 <-> Region 1116
Added edge: Region 1238 <-> Region 1310
Added edge: Region 1291 <-> Region 1314
Added edge: Region 1292 <-> Region 1315
Added edge: Region 1259 <-> Region 1316
Added edge: Region 1293 <-> Region 1317
Added edge: Region 1293 <-> Region 1318
Added edge: Region 1243 <-> Region 1318
Added edge: Region 1296 <-> Region 1319
Added edge: Region 1282 <-> Region 1321
Added edge: Region 1299 <-> Region 1322
Added edge: Region 1299 <-> Region 1323
Added edge: Region 1300 <-> Region 1188
Added edge: Region 1301 <-> Region 1264
Added edge: Region 1301 <-> Region 1324
Added edge: Region 1229 <-> Region 1325
Added edge: Region 1306 <-> Region 1305
Added edge: Region 1307 <-> Region 1306
Added edge: Region 1274 <-> Region 1289
Added edge: Region 1214 <-> Region 1328
Added edge: Region 1312 <-> Region 1313
Added edge: Region 1314 <-> Region 1332
Added edge: Region 1276 <-> Region 1333
Added edge: Region 1318 <-> Region 1334
Added edge: Region 1294 <-> Region 1334
Added edge: Region 1296 <-> Region 1336
Added edge: Region 1320 <-> Region 1337
Added edge: Region 1320 <-> Region 1338
Added edge: Region 1322 <-> Region 1323
Added edge: Region 1324 <-> Region 1264
Added edge: Region 1250 <-> Region 1340
Added edge: Region 1303 <-> Region 1342
Added edge: Region 1285 <-> Region 1342
Added edge: Region 1232 <-> Region 1345
Added edge: Region 1146 <-> Region 1346
Added edge: Region 1331 <-> Region 1330
Added edge: Region 1312 <-> Region 1349
Added edge: Region 1332 <-> Region 1350
Added edge: Region 1332 <-> Region 1351
Added edge: Region 1278 <-> Region 1352
Added edge: Region 1317 <-> Region 1316
Added edge: Region 1337 <-> Region 1357
Added edge: Region 1338 <-> Region 1357
Added edge: Region 1338 <-> Region 1358
Added edge: Region 1321 <-> Region 1358
Added edge: Region 1321 <-> Region 1359
Added edge: Region 1297 <-> Region 1360
Added edge: Region 1339 <-> Region 1361
Added edge: Region 1302 <-> Region 1362
Added edge: Region 1343 <-> Region 1364
Added edge: Region 1344 <-> Region 1365
Added edge: Region 1345 <-> Region 1306
Added edge: Region 1345 <-> Region 1366
Added edge: Region 1233 <-> Region 1367
Added edge: Region 1233 <-> Region 1368
Added edge: Region 1346 <-> Region 1368
Added edge: Region 1346 <-> Region 1234
Added edge: Region 1309 <-> Region 1370
Added edge: Region 1116 <-> Region 1370
Added edge: Region 1150 <-> Region 1371
Added edge: Region 1327 <-> Region 1372
Added edge: Region 1327 <-> Region 1310
Added edge: Region 1330 <-> Region 1374
Added edge: Region 1313 <-> Region 1375
Added edge: Region 1313 <-> Region 1376
Added edge: Region 1278 <-> Region 1377
Added edge: Region 1316 <-> Region 1353
Added edge: Region 1319 <-> Region 1379
Added edge: Region 1336 <-> Region 1380
Added edge: Region 1336 <-> Region 1381
Added edge: Region 1362 <-> Region 1385
Added edge: Region 1363 <-> Region 1386
Added edge: Region 1341 <-> Region 1386
Added edge: Region 1364 <-> Region 1387
Added edge: Region 1365 <-> Region 1388
Added edge: Region 1305 <-> Region 1388
Added edge: Region 1305 <-> Region 1389
Added edge: Region 1306 <-> Region 1389
Added edge: Region 1370 <-> Region 1390
Added edge: Region 1116 <-> Region 1391
Added edge: Region 1236 <-> Region 1391
Added edge: Region 1150 <-> Region 1392
Added edge: Region 1371 <-> Region 1392
Added edge: Region 1328 <-> Region 1394
Added edge: Region 1349 <-> Region 1395
Added edge: Region 1375 <-> Region 1396
Added edge: Region 1350 <-> Region 1398
Added edge: Region 1350 <-> Region 1351
Added edge: Region 1355 <-> Region 1378
Added edge: Region 1379 <-> Region 1380
Added edge: Region 1381 <-> Region 1399
Added edge: Region 1357 <-> Region 1399
Added edge: Region 1357 <-> Region 1358
Added edge: Region 1361 <-> Region 1400
Added edge: Region 1323 <-> Region 1401
Added edge: Region 1188 <-> Region 1383
Added edge: Region 1264 <-> Region 1402
Added edge: Region 1384 <-> Region 1403
Added edge: Region 1325 <-> Region 1341
Added edge: Region 1325 <-> Region 1404
Added edge: Region 1389 <-> Region 1388
Added edge: Region 1366 <-> Region 1306
Added edge: Region 1367 <-> Region 1366
Added edge: Region 1368 <-> Region 1405
Added edge: Region 1390 <-> Region 1369
Added edge: Region 1390 <-> Region 1406
Added edge: Region 1150 <-> Region 1407
Added edge: Region 1392 <-> Region 1407
Added edge: Region 1373 <-> Region 1408
Added edge: Region 1373 <-> Region 1409
Added edge: Region 1396 <-> Region 1397
Added edge: Region 1352 <-> Region 1412
Added edge: Region 1377 <-> Region 1412
Added edge: Region 1380 <-> Region 1415
Added edge: Region 1358 <-> Region 1416
Added edge: Region 1359 <-> Region 1417
Added edge: Region 1382 <-> Region 1418
Added edge: Region 1188 <-> Region 1402
Added edge: Region 1403 <-> Region 1419
Added edge: Region 1385 <-> Region 1420
Added edge: Region 1387 <-> Region 1422
Added edge: Region 1367 <-> Region 1405
Added edge: Region 1308 <-> Region 1424
Added edge: Region 1406 <-> Region 1369
Added edge: Region 1348 <-> Region 1394
Added edge: Region 1397 <-> Region 1425
Added edge: Region 1397 <-> Region 1411
Added edge: Region 1411 <-> Region 1426
Added edge: Region 1351 <-> Region 1427
Added edge: Region 1315 <-> Region 1427
Added edge: Region 1413 <-> Region 1429
Added edge: Region 1355 <-> Region 1430
Added edge: Region 1415 <-> Region 1431
Added edge: Region 1415 <-> Region 1432
Added edge: Region 1380 <-> Region 1432
Added edge: Region 1399 <-> Region 1358
Added edge: Region 1416 <-> Region 1433
Added edge: Region 1417 <-> Region 1433
Added edge: Region 1417 <-> Region 1382
Added edge: Region 1383 <-> Region 1435
Added edge: Region 1420 <-> Region 1419
Added edge: Region 1420 <-> Region 1437
Added edge: Region 1385 <-> Region 1437
Added edge: Region 1385 <-> Region 1438
Added edge: Region 1386 <-> Region 1439
Added edge: Region 1342 <-> Region 1404
Added edge: Region 1306 <-> Region 1388
Added edge: Region 1234 <-> Region 1423
Added edge: Region 1308 <-> Region 1441
Added edge: Region 1424 <-> Region 1442
Added edge: Region 1236 <-> Region 1443
Added edge: Region 1372 <-> Region 1310
Added edge: Region 1409 <-> Region 1408
Added edge: Region 1329 <-> Region 1374
Added edge: Region 1413 <-> Region 1428
Added edge: Region 1378 <-> Region 1448
Added edge: Region 1436 <-> Region 1402
Added edge: Region 1402 <-> Region 1419
Added edge: Region 1341 <-> Region 1451
Added edge: Region 1404 <-> Region 1451
Added edge: Region 1440 <-> Region 1453
Added edge: Region 1405 <-> Region 1423
Added edge: Region 1234 <-> Region 1454
Added edge: Region 1234 <-> Region 1441
Added edge: Region 1443 <-> Region 1455
Added edge: Region 1445 <-> Region 1459
Added edge: Region 1425 <-> Region 1462
Added edge: Region 1411 <-> Region 1462
Added edge: Region 1447 <-> Region 1466
Added edge: Region 1428 <-> Region 1466
Added edge: Region 1378 <-> Region 1467
Added edge: Region 1430 <-> Region 1467
Added edge: Region 1430 <-> Region 1468
Added edge: Region 1433 <-> Region 1469
Added edge: Region 1437 <-> Region 1474
Added edge: Region 1342 <-> Region 1452
Added edge: Region 1453 <-> Region 1387
Added edge: Region 1422 <-> Region 1475
Added edge: Region 1454 <-> Region 1423
Added edge: Region 1454 <-> Region 1477
Added edge: Region 1234 <-> Region 1477
Added edge: Region 1308 <-> Region 1478
Added edge: Region 1369 <-> Region 1442
Added edge: Region 1455 <-> Region 1479
Added edge: Region 1455 <-> Region 1480
Added edge: Region 1310 <-> Region 1481
Added edge: Region 1374 <-> Region 1482
Added edge: Region 1425 <-> Region 1483
Added edge: Region 1432 <-> Region 1486
Added edge: Region 1449 <-> Region 1486
Added edge: Region 1473 <-> Region 1472
Added edge: Region 1438 <-> Region 1474
Added edge: Region 1439 <-> Region 1491
Added edge: Region 1387 <-> Region 1493
Added edge: Region 1365 <-> Region 1475
Added edge: Region 1476 <-> Region 1388
Added edge: Region 1476 <-> Region 1494
Added edge: Region 1477 <-> Region 1423
Added edge: Region 1480 <-> Region 1479
Added edge: Region 1481 <-> Region 1457
Added edge: Region 1408 <-> Region 1495
Added edge: Region 1408 <-> Region 1496
Added edge: Region 1394 <-> Region 1497
Added edge: Region 1482 <-> Region 1498
Added edge: Region 1482 <-> Region 1499
Added edge: Region 1461 <-> Region 1500
Added edge: Region 1461 <-> Region 1483
Added edge: Region 1446 <-> Region 1501
Added edge: Region 1484 <-> Region 1502
Added edge: Region 1465 <-> Region 1502
Added edge: Region 1428 <-> Region 1503
Added edge: Region 1429 <-> Region 1503
Added edge: Region 1448 <-> Region 1485
Added edge: Region 1467 <-> Region 1485
Added edge: Region 1467 <-> Region 1504
Added edge: Region 1468 <-> Region 1504
Added edge: Region 1469 <-> Region 1505
Added edge: Region 1488 <-> Region 1506
Added edge: Region 1402 <-> Region 1507
Added edge: Region 1452 <-> Region 1509
Added edge: Region 1492 <-> Region 1493
Added edge: Region 1494 <-> Region 1388
Added edge: Region 1405 <-> Region 1510
Added edge: Region 1477 <-> Region 1511
Added edge: Region 1441 <-> Region 1511
Added edge: Region 1441 <-> Region 1512
Added edge: Region 1308 <-> Region 1512
Added edge: Region 1369 <-> Region 1513
Added edge: Region 1310 <-> Region 1516
Added edge: Region 1496 <-> Region 1495
Added edge: Region 1498 <-> Region 1519
Added edge: Region 1499 <-> Region 1519
Added edge: Region 1499 <-> Region 1500
Added edge: Region 1483 <-> Region 1520
Added edge: Region 1462 <-> Region 1520
Added edge: Region 1504 <-> Region 1525
Added edge: Region 1468 <-> Region 1525
Added edge: Region 1505 <-> Region 1527
Added edge: Region 1506 <-> Region 1527
Added edge: Region 1506 <-> Region 1528
Added edge: Region 1471 <-> Region 1530
Added edge: Region 1507 <-> Region 1533
Added edge: Region 1507 <-> Region 1534
Added edge: Region 1402 <-> Region 1534
Added edge: Region 1419 <-> Region 1535
Added edge: Region 1404 <-> Region 1536
Added edge: Region 1493 <-> Region 1537
Added edge: Region 1422 <-> Region 1537
Added edge: Region 1405 <-> Region 1538
Added edge: Region 1512 <-> Region 1511
Added edge: Region 1478 <-> Region 1442
Added edge: Region 1479 <-> Region 1539
Added edge: Region 1514 <-> Region 1539
Added edge: Region 1514 <-> Region 1540
Added edge: Region 1516 <-> Region 1457
Added edge: Region 1457 <-> Region 1444
Added edge: Region 1458 <-> Region 1541
Added edge: Region 1394 <-> Region 1542
Added edge: Region 1520 <-> Region 1543
Added edge: Region 1501 <-> Region 1546
Added edge: Region 1522 <-> Region 1547
Added edge: Region 1502 <-> Region 1547
Added edge: Region 1502 <-> Region 1548
Added edge: Region 1523 <-> Region 1548
Added edge: Region 1466 <-> Region 1549
Added edge: Region 1466 <-> Region 1550
Added edge: Region 1503 <-> Region 1550
Added edge: Region 1429 <-> Region 1551
Added edge: Region 1485 <-> Region 1524
Added edge: Region 1525 <-> Region 1524
Added edge: Region 1526 <-> Region 1552
Added edge: Region 1505 <-> Region 1526
Added edge: Region 1528 <-> Region 1529
Added edge: Region 1530 <-> Region 1554
Added edge: Region 1531 <-> Region 1555
Added edge: Region 1532 <-> Region 1555
Added edge: Region 1533 <-> Region 1556
Added edge: Region 1534 <-> Region 1556
Added edge: Region 1474 <-> Region 1558
Added edge: Region 1508 <-> Region 1559
Added edge: Region 1536 <-> Region 1560
Added edge: Region 1452 <-> Region 1561
Added edge: Region 1509 <-> Region 1561
Added edge: Region 1509 <-> Region 1562
Added edge: Region 1388 <-> Region 1563
Added edge: Region 1510 <-> Region 1564
Added edge: Region 1423 <-> Region 1565
Added edge: Region 1515 <-> Region 1568
Added edge: Region 1457 <-> Region 1569
Added edge: Region 1518 <-> Region 1570
Added edge: Region 1519 <-> Region 1570
Added edge: Region 1544 <-> Region 1543
Added edge: Region 1545 <-> Region 1521
Added edge: Region 1485 <-> Region 1572
Added edge: Region 1524 <-> Region 1573
Added edge: Region 1552 <-> Region 1576
Added edge: Region 1526 <-> Region 1576
Added edge: Region 1527 <-> Region 1577
Added edge: Region 1553 <-> Region 1529
Added edge: Region 1490 <-> Region 1578
Added edge: Region 1556 <-> Region 1579
Added edge: Region 1534 <-> Region 1579
Added edge: Region 1534 <-> Region 1580
Added edge: Region 1557 <-> Region 1580
Added edge: Region 1557 <-> Region 1581
Added edge: Region 1419 <-> Region 1581
Added edge: Region 1560 <-> Region 1559
Added edge: Region 1560 <-> Region 1583
Added edge: Region 1561 <-> Region 1584
Added edge: Region 1562 <-> Region 1584
Added edge: Region 1564 <-> Region 1563
Added edge: Region 1423 <-> Region 1585
Added edge: Region 1511 <-> Region 1585
Added edge: Region 1442 <-> Region 1586
Added edge: Region 1567 <-> Region 1513
Added edge: Region 1539 <-> Region 1587
Added edge: Region 1495 <-> Region 1589
Added edge: Region 1570 <-> Region 1591
Added edge: Region 1546 <-> Region 1593
Added edge: Region 1550 <-> Region 1595
Added edge: Region 1571 <-> Region 1595
Added edge: Region 1571 <-> Region 1596
Added edge: Region 1551 <-> Region 1596
Added edge: Region 1572 <-> Region 1573
Added edge: Region 1575 <-> Region 1597
Added edge: Region 1575 <-> Region 1598
Added edge: Region 1576 <-> Region 1598
Added edge: Region 1576 <-> Region 1599
Added edge: Region 1526 <-> Region 1599
Added edge: Region 1577 <-> Region 1600
Added edge: Region 1577 <-> Region 1529
Added edge: Region 1529 <-> Region 1601
Added edge: Region 1554 <-> Region 1578
Added edge: Region 1579 <-> Region 1602
Added edge: Region 1580 <-> Region 1581
Added edge: Region 1535 <-> Region 1604
Added edge: Region 1491 <-> Region 1582
Added edge: Region 1559 <-> Region 1582
Added edge: Region 1561 <-> Region 1605
Added edge: Region 1584 <-> Region 1605
Added edge: Region 1584 <-> Region 1606
Added edge: Region 1511 <-> Region 1566
Added edge: Region 1586 <-> Region 1607
Added edge: Region 1589 <-> Region 1612
Added edge: Region 1495 <-> Region 1612
Added edge: Region 1542 <-> Region 1613
Added edge: Region 1591 <-> Region 1592
Added edge: Region 1573 <-> Region 1618
Added edge: Region 1599 <-> Region 1598
Added edge: Region 1600 <-> Region 1619
Added edge: Region 1600 <-> Region 1529
Added edge: Region 1555 <-> Region 1621
Added edge: Region 1581 <-> Region 1604
Added edge: Region 1558 <-> Region 1622
Added edge: Region 1561 <-> Region 1624
Added edge: Region 1605 <-> Region 1624
Added edge: Region 1605 <-> Region 1606
Added edge: Region 1513 <-> Region 1625
Added edge: Region 1513 <-> Region 1626
Added edge: Region 1612 <-> Region 1627
Added edge: Region 1592 <-> Region 1631
Added edge: Region 1593 <-> Region 1616
Added edge: Region 1505 <-> Region 1633
Added edge: Region 1619 <-> Region 1633
Added edge: Region 1619 <-> Region 1529
Added edge: Region 1578 <-> Region 1634
Added edge: Region 1603 <-> Region 1635
Added edge: Region 1581 <-> Region 1635
Added edge: Region 1582 <-> Region 1637
Added edge: Region 1583 <-> Region 1559
Added edge: Region 1623 <-> Region 1638
Added edge: Region 1561 <-> Region 1638
Added edge: Region 1624 <-> Region 1606
Added edge: Region 1475 <-> Region 1639
Added edge: Region 1388 <-> Region 1640
Added edge: Region 1608 <-> Region 1641
Added edge: Region 1609 <-> Region 1642
Added edge: Region 1444 <-> Region 1645
Added edge: Region 1629 <-> Region 1630
Added edge: Region 1614 <-> Region 1648
Added edge: Region 1592 <-> Region 1648
Added edge: Region 1592 <-> Region 1649
Added edge: Region 1631 <-> Region 1649
Added edge: Region 1631 <-> Region 1543
Added edge: Region 1543 <-> Region 1650
Added edge: Region 1615 <-> Region 1652
Added edge: Region 1632 <-> Region 1654
Added edge: Region 1633 <-> Region 1529
Added edge: Region 1621 <-> Region 1656
Added edge: Region 1622 <-> Region 1658
Added edge: Region 1622 <-> Region 1659
Added edge: Region 1637 <-> Region 1659
Added edge: Region 1475 <-> Region 1640
Added edge: Region 1625 <-> Region 1608
Added edge: Region 1625 <-> Region 1660
Added edge: Region 1646 <-> Region 1662
Added edge: Region 1648 <-> Region 1663
Added edge: Region 1649 <-> Region 1663
Added edge: Region 1651 <-> Region 1664
Added edge: Region 1652 <-> Region 1664
Added edge: Region 1653 <-> Region 1616
Added edge: Region 1618 <-> Region 1666
Added edge: Region 1655 <-> Region 1668
Added edge: Region 1601 <-> Region 1669
Added edge: Region 1621 <-> Region 1670
Added edge: Region 1657 <-> Region 1670
Added edge: Region 1657 <-> Region 1671
Added edge: Region 1659 <-> Region 1658
Added edge: Region 1582 <-> Region 1674
Added edge: Region 1606 <-> Region 1676
Added edge: Region 1585 <-> Region 1678
Added edge: Region 1625 <-> Region 1679
Added edge: Region 1660 <-> Region 1679
Added edge: Region 1660 <-> Region 1680
Added edge: Region 1661 <-> Region 1682
Added edge: Region 1647 <-> Region 1683
Added edge: Region 1630 <-> Region 1683
Added edge: Region 1614 <-> Region 1684
Added edge: Region 1614 <-> Region 1685
Added edge: Region 1648 <-> Region 1685
Added edge: Region 1543 <-> Region 1686
Added edge: Region 1650 <-> Region 1686
Added edge: Region 1654 <-> Region 1687
Added edge: Region 1573 <-> Region 1688
Added edge: Region 1668 <-> Region 1689
Added edge: Region 1668 <-> Region 1690
Added edge: Region 1634 <-> Region 1691
Added edge: Region 1671 <-> Region 1692
Added edge: Region 1672 <-> Region 1692
Added edge: Region 1672 <-> Region 1693
Added edge: Region 1675 <-> Region 1694
Added edge: Region 1638 <-> Region 1676
Added edge: Region 1537 <-> Region 1639
Added edge: Region 1565 <-> Region 1695
Added edge: Region 1565 <-> Region 1678
Added edge: Region 1566 <-> Region 1696
Added edge: Region 1608 <-> Region 1697
Added edge: Region 1679 <-> Region 1680
Added edge: Region 1685 <-> Region 1663
Added edge: Region 1686 <-> Region 1700
Added edge: Region 1616 <-> Region 1701
Added edge: Region 1688 <-> Region 1665
Added edge: Region 1618 <-> Region 1705
Added edge: Region 1673 <-> Region 1709
Added edge: Region 1582 <-> Region 1710
Added edge: Region 1582 <-> Region 1711
Added edge: Region 1563 <-> Region 1677
Added edge: Region 1695 <-> Region 1712
Added edge: Region 1565 <-> Region 1712
Added edge: Region 1585 <-> Region 1713
Added edge: Region 1696 <-> Region 1713
Added edge: Region 1697 <-> Region 1641
Added edge: Region 1680 <-> Region 1714
Added edge: Region 1569 <-> Region 1645
Added edge: Region 1646 <-> Region 1716
Added edge: Region 1663 <-> Region 1718
Added edge: Region 1686 <-> Region 1719
Added edge: Region 1701 <-> Region 1720
Added edge: Region 1703 <-> Region 1722
Added edge: Region 1704 <-> Region 1723
Added edge: Region 1654 <-> Region 1724
Added edge: Region 1667 <-> Region 1725
Added edge: Region 1689 <-> Region 1725
Added edge: Region 1689 <-> Region 1726
Added edge: Region 1690 <-> Region 1726
Added edge: Region 1706 <-> Region 1690
Added edge: Region 1706 <-> Region 1727
Added edge: Region 1707 <-> Region 1727
Added edge: Region 1620 <-> Region 1728
Added edge: Region 1620 <-> Region 1729
Added edge: Region 1656 <-> Region 1729
Added edge: Region 1692 <-> Region 1730
Added edge: Region 1692 <-> Region 1731
Added edge: Region 1709 <-> Region 1732
Added edge: Region 1658 <-> Region 1733
Added edge: Region 1711 <-> Region 1734
Added edge: Region 1641 <-> Region 1735
Added edge: Region 1681 <-> Region 1698
Added edge: Region 1715 <-> Region 1698
Added edge: Region 1663 <-> Region 1737
Added edge: Region 1718 <-> Region 1737
Added edge: Region 1719 <-> Region 1738
Added edge: Region 1664 <-> Region 1739
Added edge: Region 1721 <-> Region 1720
Added edge: Region 1723 <-> Region 1722
Added edge: Region 1665 <-> Region 1740
Added edge: Region 1705 <-> Region 1741
Added edge: Region 1667 <-> Region 1742
Added edge: Region 1708 <-> Region 1744
Added edge: Region 1729 <-> Region 1728
Added edge: Region 1670 <-> Region 1745
Added edge: Region 1730 <-> Region 1746
Added edge: Region 1731 <-> Region 1747
Added edge: Region 1732 <-> Region 1747
Added edge: Region 1710 <-> Region 1748
Added edge: Region 1537 <-> Region 1749
Added edge: Region 1640 <-> Region 1750
Added edge: Region 1641 <-> Region 1752
Added edge: Region 1662 <-> Region 1754
Added edge: Region 1717 <-> Region 1716
Added edge: Region 1737 <-> Region 1755
Added edge: Region 1737 <-> Region 1756
Added edge: Region 1700 <-> Region 1757
Added edge: Region 1723 <-> Region 1759
Added edge: Region 1724 <-> Region 1760
Added edge: Region 1724 <-> Region 1761
Added edge: Region 1654 <-> Region 1761
Added edge: Region 1705 <-> Region 1762
Added edge: Region 1705 <-> Region 1763
Added edge: Region 1666 <-> Region 1763
Added edge: Region 1727 <-> Region 1690
Added edge: Region 1727 <-> Region 1764
Added edge: Region 1743 <-> Region 1764
Added edge: Region 1743 <-> Region 1765
Added edge: Region 1744 <-> Region 1766
Added edge: Region 1746 <-> Region 1747
Added edge: Region 1748 <-> Region 1768
Added edge: Region 1734 <-> Region 1768
Added edge: Region 1734 <-> Region 1769
Added edge: Region 1676 <-> Region 1771
Added edge: Region 1678 <-> Region 1772
Added edge: Region 1751 <-> Region 1772
Added edge: Region 1751 <-> Region 1773
Added edge: Region 1713 <-> Region 1773
Added edge: Region 1641 <-> Region 1774
Added edge: Region 1735 <-> Region 1775
Added edge: Region 1753 <-> Region 1736
Added edge: Region 1645 <-> Region 1776
Added edge: Region 1757 <-> Region 1778
Added edge: Region 1720 <-> Region 1779
Added edge: Region 1761 <-> Region 1760
Added edge: Region 1687 <-> Region 1780
Added edge: Region 1741 <-> Region 1740
Added edge: Region 1741 <-> Region 1781
Added edge: Region 1762 <-> Region 1781
Added edge: Region 1762 <-> Region 1782
Added edge: Region 1705 <-> Region 1782
Added edge: Region 1763 <-> Region 1783
Added edge: Region 1726 <-> Region 1725
Added edge: Region 1764 <-> Region 1784
Added edge: Region 1765 <-> Region 1784
Added edge: Region 1765 <-> Region 1785
Added edge: Region 1766 <-> Region 1785
Added edge: Region 1766 <-> Region 1786
Added edge: Region 1669 <-> Region 1787
Added edge: Region 1728 <-> Region 1788
Added edge: Region 1670 <-> Region 1767
Added edge: Region 1732 <-> Region 1789
Added edge: Region 1768 <-> Region 1790
Added edge: Region 1769 <-> Region 1791
Added edge: Region 1770 <-> Region 1791
Added edge: Region 1640 <-> Region 1792
Added edge: Region 1714 <-> Region 1793
Added edge: Region 1682 <-> Region 1795
Added edge: Region 1758 <-> Region 1797
Added edge: Region 1722 <-> Region 1797
Added edge: Region 1722 <-> Region 1798
Added edge: Region 1759 <-> Region 1798
Added edge: Region 1654 <-> Region 1760
Added edge: Region 1782 <-> Region 1781
Added edge: Region 1725 <-> Region 1799
Added edge: Region 1784 <-> Region 1800
Added edge: Region 1785 <-> Region 1801
Added edge: Region 1786 <-> Region 1801
Added edge: Region 1691 <-> Region 1787
Added edge: Region 1691 <-> Region 1802
Added edge: Region 1728 <-> Region 1802
Added edge: Region 1767 <-> Region 1803
Added edge: Region 1789 <-> Region 1804
Added edge: Region 1733 <-> Region 1805
Added edge: Region 1790 <-> Region 1806
Added edge: Region 1563 <-> Region 1792
Added edge: Region 1736 <-> Region 1794
Added edge: Region 1736 <-> Region 1808
Added edge: Region 1776 <-> Region 1808
Added edge: Region 1777 <-> Region 1810
Added edge: Region 1716 <-> Region 1813
Added edge: Region 1739 <-> Region 1815
Added edge: Region 1797 <-> Region 1816
Added edge: Region 1763 <-> Region 1817
Added edge: Region 1783 <-> Region 1818
Added edge: Region 1786 <-> Region 1819
Added edge: Region 1786 <-> Region 1820
Added edge: Region 1787 <-> Region 1821
Added edge: Region 1804 <-> Region 1747
Added edge: Region 1804 <-> Region 1823
Added edge: Region 1789 <-> Region 1823
Added edge: Region 1789 <-> Region 1824
Added edge: Region 1806 <-> Region 1825
Added edge: Region 1639 <-> Region 1827
Added edge: Region 1639 <-> Region 1750
Added edge: Region 1792 <-> Region 1828
Added edge: Region 1678 <-> Region 1829
Added edge: Region 1772 <-> Region 1773
Added edge: Region 1807 <-> Region 1830
Added edge: Region 1775 <-> Region 1831
Added edge: Region 1793 <-> Region 1831
Added edge: Region 1778 <-> Region 1836
Added edge: Region 1760 <-> Region 1837
Added edge: Region 1687 <-> Region 1838
Added edge: Region 1781 <-> Region 1839
Added edge: Region 1819 <-> Region 1801
Added edge: Region 1819 <-> Region 1840
Added edge: Region 1821 <-> Region 1841
Added edge: Region 1787 <-> Region 1841
Added edge: Region 1822 <-> Region 1843
Added edge: Region 1823 <-> Region 1747
Added edge: Region 1823 <-> Region 1844
Added edge: Region 1824 <-> Region 1844
Added edge: Region 1733 <-> Region 1845
Added edge: Region 1826 <-> Region 1825
Added edge: Region 1771 <-> Region 1846
Added edge: Region 1749 <-> Region 1827
Added edge: Region 1750 <-> Region 1828
Added edge: Region 1792 <-> Region 1847
Added edge: Region 1563 <-> Region 1847
Added edge: Region 1712 <-> Region 1829
Added edge: Region 1796 <-> Region 1852
Added edge: Region 1815 <-> Region 1853
Added edge: Region 1816 <-> Region 1854
Added edge: Region 1817 <-> Region 1839
Added edge: Region 1783 <-> Region 1855
Added edge: Region 1840 <-> Region 1801
Added edge: Region 1840 <-> Region 1857
Added edge: Region 1841 <-> Region 1858
Added edge: Region 1843 <-> Region 1859
Added edge: Region 1843 <-> Region 1860
Added edge: Region 1747 <-> Region 1803
Added edge: Region 1844 <-> Region 1747
Added edge: Region 1845 <-> Region 1861
Added edge: Region 1805 <-> Region 1861
Added edge: Region 1805 <-> Region 1862
Added edge: Region 1771 <-> Region 1863
Added edge: Region 1749 <-> Region 1864
Added edge: Region 1847 <-> Region 1828
Added edge: Region 1775 <-> Region 1848
Added edge: Region 1835 <-> Region 1866
Added edge: Region 1852 <-> Region 1867
Added edge: Region 1796 <-> Region 1867
Added edge: Region 1778 <-> Region 1868
Added edge: Region 1798 <-> Region 1869
Added edge: Region 1837 <-> Region 1870
Added edge: Region 1780 <-> Region 1871
Added edge: Region 1740 <-> Region 1872
Added edge: Region 1839 <-> Region 1872
Added edge: Region 1855 <-> Region 1873
Added edge: Region 1857 <-> Region 1875
Added edge: Region 1860 <-> Region 1877
Added edge: Region 1803 <-> Region 1877
Added edge: Region 1861 <-> Region 1879
Added edge: Region 1805 <-> Region 1879
Added edge: Region 1863 <-> Region 1846
Added edge: Region 1864 <-> Region 1880
Added edge: Region 1698 <-> Region 1881
Added edge: Region 1866 <-> Region 1889
Added edge: Region 1867 <-> Region 1890
Added edge: Region 1778 <-> Region 1891
Added edge: Region 1779 <-> Region 1892
Added edge: Region 1837 <-> Region 1893
Added edge: Region 1817 <-> Region 1894
Added edge: Region 1783 <-> Region 1894
Added edge: Region 1783 <-> Region 1895
Added edge: Region 1801 <-> Region 1897
Added edge: Region 1878 <-> Region 1900
Added edge: Region 1879 <-> Region 1901
Added edge: Region 1862 <-> Region 1901
Added edge: Region 1880 <-> Region 1902
Added edge: Region 1827 <-> Region 1903
Added edge: Region 1884 <-> Region 1883
Added edge: Region 1884 <-> Region 1913
Added edge: Region 1885 <-> Region 1913
Added edge: Region 1888 <-> Region 1915
Added edge: Region 1835 <-> Region 1916
Added edge: Region 1891 <-> Region 1917
Added edge: Region 1891 <-> Region 1918
Added edge: Region 1868 <-> Region 1918
Added edge: Region 1868 <-> Region 1853
Added edge: Region 1869 <-> Region 1919
Added edge: Region 1893 <-> Region 1920
Added edge: Region 1895 <-> Region 1873
Added edge: Region 1799 <-> Region 1896
Added edge: Region 1897 <-> Region 1874
Added edge: Region 1899 <-> Region 1923
Added edge: Region 1803 <-> Region 1924
Added edge: Region 1747 <-> Region 1925
Added edge: Region 1900 <-> Region 1926
Added edge: Region 1900 <-> Region 1927
Added edge: Region 1901 <-> Region 1927
Added edge: Region 1905 <-> Region 1904
Added edge: Region 1907 <-> Region 1908
Added edge: Region 1909 <-> Region 1933
Added edge: Region 1910 <-> Region 1933
Added edge: Region 1910 <-> Region 1934
Added edge: Region 1912 <-> Region 1935
Added edge: Region 1881 <-> Region 1912
Added edge: Region 1883 <-> Region 1936
Added edge: Region 1851 <-> Region 1937
Added edge: Region 1851 <-> Region 1938
Added edge: Region 1917 <-> Region 1939
Added edge: Region 1917 <-> Region 1918
Added edge: Region 1869 <-> Region 1940
Added edge: Region 1871 <-> Region 1870
Added edge: Region 1873 <-> Region 1941
Added edge: Region 1856 <-> Region 1896
Added edge: Region 1921 <-> Region 1943
Added edge: Region 1927 <-> Region 1945
Added edge: Region 1929 <-> Region 1952
Added edge: Region 1905 <-> Region 1953
Added edge: Region 1908 <-> Region 1909
Added edge: Region 1934 <-> Region 1933
Added edge: Region 1934 <-> Region 1954
Added edge: Region 1913 <-> Region 1955
Added edge: Region 1940 <-> Region 1958
Added edge: Region 1920 <-> Region 1959
Added edge: Region 1920 <-> Region 1960
Added edge: Region 1870 <-> Region 1960
Added edge: Region 1839 <-> Region 1961
Added edge: Region 1945 <-> Region 1970
Added edge: Region 1946 <-> Region 1970
Added edge: Region 1946 <-> Region 1971
Added edge: Region 1950 <-> Region 1951
Added edge: Region 1952 <-> Region 1928
Added edge: Region 1952 <-> Region 1972
Added edge: Region 1929 <-> Region 1972
Added edge: Region 1929 <-> Region 1930
Added edge: Region 1930 <-> Region 1931
Added edge: Region 1932 <-> Region 1973
Added edge: Region 1904 <-> Region 1973
Added edge: Region 1905 <-> Region 1974
Added edge: Region 1953 <-> Region 1974
Added edge: Region 1953 <-> Region 1906
Added edge: Region 1906 <-> Region 1975
Added edge: Region 1936 <-> Region 1977
Added edge: Region 1955 <-> Region 1977
Added edge: Region 1957 <-> Region 1978
Added edge: Region 1957 <-> Region 1979
Added edge: Region 1939 <-> Region 1982
Added edge: Region 1918 <-> Region 1982
Added edge: Region 1961 <-> Region 1984
Added edge: Region 1962 <-> Region 1993
Added edge: Region 1963 <-> Region 1993
Added edge: Region 1963 <-> Region 1994
Added edge: Region 1966 <-> Region 1965
Added edge: Region 1967 <-> Region 1968
Added edge: Region 1968 <-> Region 1995
Added edge: Region 1945 <-> Region 1969
Added edge: Region 1971 <-> Region 1970
Added edge: Region 1947 <-> Region 1996
Added edge: Region 1912 <-> Region 1999
Added edge: Region 1983 <-> Region 2001
Added edge: Region 1987 <-> Region 1988
Added edge: Region 1991 <-> Region 2010
Added edge: Region 1965 <-> Region 2013
Added edge: Region 1966 <-> Region 2013
Added edge: Region 1967 <-> Region 1966
Added edge: Region 1969 <-> Region 2014
Added edge: Region 1970 <-> Region 2014
Added edge: Region 1996 <-> Region 2015
Added edge: Region 1947 <-> Region 2015
Added edge: Region 1951 <-> Region 1997
Added edge: Region 1972 <-> Region 1928
Added edge: Region 1930 <-> Region 2016
Added edge: Region 1930 <-> Region 2017
Added edge: Region 1931 <-> Region 2017
Added edge: Region 1931 <-> Region 2018
Added edge: Region 1904 <-> Region 2019
Added edge: Region 1974 <-> Region 2019
Added edge: Region 1975 <-> Region 2020
Added edge: Region 1908 <-> Region 2020
Added edge: Region 1933 <-> Region 1998
Added edge: Region 1912 <-> Region 2022
Added edge: Region 1882 <-> Region 1977
Added edge: Region 2004 <-> Region 2003
Added edge: Region 2004 <-> Region 2005
Added edge: Region 2007 <-> Region 2006
Added edge: Region 2008 <-> Region 1984
Added edge: Region 1985 <-> Region 2031
Added edge: Region 1991 <-> Region 1990
Added edge: Region 1992 <-> Region 2010
Added edge: Region 1992 <-> Region 2033
Added edge: Region 2013 <-> Region 2034
Added edge: Region 1969 <-> Region 1995
Added edge: Region 2015 <-> Region 2035
Added edge: Region 1947 <-> Region 2036
Added edge: Region 1928 <-> Region 2037
Added edge: Region 1930 <-> Region 2038
Added edge: Region 2017 <-> Region 2038
Added edge: Region 2017 <-> Region 2018
Added edge: Region 1974 <-> Region 1975
Added edge: Region 2020 <-> Region 1909
Added edge: Region 1999 <-> Region 2039
Added edge: Region 2022 <-> Region 1999
Added edge: Region 2025 <-> Region 2026
Added edge: Region 2001 <-> Region 2030
Added edge: Region 2032 <-> Region 2047
Added edge: Region 1987 <-> Region 2047
Added edge: Region 2009 <-> Region 2049
Added edge: Region 1990 <-> Region 2050
Added edge: Region 2010 <-> Region 2050
Added edge: Region 2012 <-> Region 2051
Added edge: Region 1964 <-> Region 2053
Added edge: Region 1966 <-> Region 2054
Added edge: Region 1970 <-> Region 2055
Added edge: Region 2035 <-> Region 2055
Added edge: Region 2035 <-> Region 2056
Added edge: Region 2036 <-> Region 2056
Added edge: Region 2036 <-> Region 2057
Added edge: Region 1947 <-> Region 2057
Added edge: Region 1949 <-> Region 2058
Added edge: Region 1951 <-> Region 2059
Added edge: Region 2037 <-> Region 1997
Added edge: Region 2038 <-> Region 2018
[...]
 0  0  0  0  0  0  0  0  0  0  0  0  0  0  0  0  0  0  0  0  0  0  0  0  0  0  0  0  0  0  0  0  0  0  0  0  0  0  0  0  0  0  0  0  0  0  0  0  0  0  0  0  0  0  0  0  0  0  0  0  0  0  0  0  0  0  0  0  0  0  0  0  0  0  0  0  0  0  0  0  0  0  0  0  0  0  0  0  0  0  0  0  0  0  0  0  0  0  0  0  0  0  0  0  0  0  0  0  0  0  0  0  0  0  0  0  0  0  0  0  0  0  0  0  0  0  0  0  0  0  0  0  0  0  0  0  0  0  0  0  0  0  0  0  0  0  0  0  0  0  0  0  0  0  0  0  0  0  0  0  0  0  0  0  0  0  0  0  0  0  0  0  0  0  0  0  0  0  0  0  0  0  0  0  0  0  0  0  0  0  0  0  0  0  0  0  0  0  0  0  0  0  0  0  0  0  0  0  0  0  0  0  0  0  0  0  0  0  0  0  0  0  0  0  0  0  0  0  0  0  0  0  0  0  0  0  0  0  0  0  0  0  0  0  0  0  0  0  0  0  0  0  0  0  0  0  0  0  0  0  0  0  0  0  0  0  0  0  0  0  0  0  0  0  0  0  0  0  0  0  0  0  0  0  0  0  0  0  0  0  0  0  0  0  0  0  0  0  0  0  0  0  0  0  0  0  0  0  0  0  0  0  0  0  0  0  0  0  0  0  0  0  0  0  0  0  0  0  0  0  0  0  0  0  0  0  0  0  0  0  0  0  0  0  0  0  0  0  0  0  0  0  0  0  0  0  0  0  0  0  0  0  0  0  0  0  0  0  0  0  0  0  0  0  0  0  0  0  0  0  0  0  0  0  0  0  0  0  0  0  0  0  0  0  0  0  0  0  0  0  0  0  0  0  0  0  0  0  0  0  0  0  0  0  0  0  0  0  0  0  0  0  0  0  0  0  0  0  0  0  0  0  0  0  0  0  0  0  0  0  0  0  0  0  0  0  0  0  0  0  0  0  0  0  0  0  0  0  0  0  0  0  0  0  0  0  0  0  0  0  0  0  0  0  0  0  0  0  0  0  0  0  0  0  0  0  0  0  0  0  0  0  0  0  0  0  0  0  0  0  0  0  0  0  0  0  0  0  0  0  0  0  0  0  0  0  0  0  0  0  0  0  0  0  0  0  0  0  0  0  0  0  0  0  0  0  0  0  0  0  0  0  0  0  0  0  0  0  0  0  0  0  0  0  0  0  0  0  0  0  0  0  0  0  0  0  0  0  0  0  0  0  0  0  0  0  0  0  0  0  0  0  0  0  0  0  0  0  0  0  0  0  0  0  0  0  0  0  0  0  0  0  0  0  0  0  0  0  0  0  0  0  0  0  0  0  0  0  0  0  0  0  0  0  0  0  0  0  0  0  0  0  0  0  0  0  0  0  0  0  0  0  0  0  0  0  0  0  0  0  0  0  0  0  0  0  0  0  0  0  0  0  0  0  0  0  0  0  0  0  0  0  0  0  0  0  0  0  0  0  0  0  0  0  0  0  0  0  0  0  0  0  0  0  0  0  0  0  0  0  0  0  0  0  0  0  0  0  0  0  0  0  0  0  0  0  0  0  0  0  0  0  0  0  0  0  0  0  0  0  0  0  0  0  0  0  0  0  0  0  0  0  0  0  0  0  0  0  0  0  0  0  0  0  0  0  0  0  0  0  0  0  0  0  0  0  0  0  0  0  0  0  0  0  0  0  0  0  0  0  0  0  0  0  0  0  0  0  0  0  0  0  0  0  0  0  0  0  0  0  0  0  0  0  0  0  0  0  0  0  0  0  0  0  0  0  0  0  0  0  0  0  0  0  0  0  0  0  0  0  0  0  0  0  0  0  0  0  0  0  0  0  0  0  0  0  0  0  0  0  0  0  0  0  0  0  0  0  0  0  0  0  0  0  0  0  0  0  0  0  0  0  0  0  0  0  0  0  0  0  0  0  0  0  0  0  0  0  0  0  0  0  0  0  0  0  0  0  0  0  0  0  0  0  0  0  0  0  0  0  0  0  0  0  0  0  0  0  0  0  0  0  0  0  0  0  0  0  0  0  0  0  0  0  0  0  0  0  0  0  0  0  0  0  0  0  0  0  0  0  0  0  0  0  0  0  0  0  0  0  0  0  0  0  0  0  0  0  0  0  0  0  0  0  0  0  0  0  0  0  0  0  0  0  0  0  0  0  0  0  0  0  0  0  0  0  0  0  0  0  0  0  0  0  0  0  0  0  0  0  0  0  0  0  0  0  0  0  0  0  0  0  0  0  0  0  0  0  0  0  0  0  0  0  0  0  0  0  0  0  0  0  0  0  0  0  0  0  0  0  0  0  0  0  0  0  0  0  0  0  0  0  0  0  0  0  0  0  0  0  0  0  0  0  0  0  0  0  0  0  0  0  0  0  0  0  0  0  0  0  0  0  0  0  0  0  0  0  0  0  0  0  0  0  0  0  0  0  0  0  0  0  0  0  0  0  0  0  0  0  0  0  0  0  0  0  0  0  0  0  0  0  0  0  0  0  0  0  0  0  0  0  0  0  0  0  0  0  0  0  0  0  0  0  0  0  0  0  0  0  0  0  0  0  0  0  0  0  0  0  0  0  0  0  0  0  0  0  0  0  0  0  0  0  0  0  0  0  0  0  0  0  0  0  0  0  0  0  0  0  0  0  0  0  0  0  0  0  0  0  0  0  0  0  0  0  0  0  0  0  0  0  0  0  0  0  0  0  0  0  0  0  0  0  0  0  0  0  0  0  0  0  0  0  0  0  0  0  0  0  0  0  0  0  0  0  0  0  0  0  0  0  0  0  0  0  0  0  0  0  0  0  0  0  0  0  0  0  0  0  0  0  0  0  0  0  0  0  0  0  0  0  0  0  0  0  0  0  0  0  0  0  0  0  0  0  0  0  0  0  0  0  0  0  0  0  0  0  0  0  0  0  0  0  0  0  0  0  0  0  0  0  0  0  0  0  0  0  0  0  0  0  0  0  0  0  0  0  0  0  0  0  0  0  0  0  0  0  0  0  0  0  0  0  0  0  0  0  0  0  0  0  0  0  0  0  0  0  0  0  0  0  0  0  0  0  0  0  0  0  0  0  0  0  0  0  0  0  0  0  0  0  0  0  0  0  0  0  0  0  0  0  0  0  0  0  0  0  0  0  0  0  0  0  0  0  0  0  0  0  0  0  0  0  0  0  0  0  0  0  0  0  0  0  0  0  0  0  0  0  0  0  0  0  0  0  0  0  0  0  0  0  0  0  0  0  0  0  0  0  0  0  0  0  0  0  0  0  0  0  0  0  0  0  0  0  0  0  0  0  0  0  0  0  0  0  0  0  0  0  0  0  0  0  0  0  0  0  0  0  0  0  0  0  0  0  0  0  0  0  0  0  0  0  0  0  0  0  0  0  0  0  0  0  0  0  0  0  0  0  0  0  0  0  0  0  0  0  0  0  0  0  0  0  0  0  0  0  0  0  0  0  0  0  0  0  0  0  0  0  0  0  0  0  0  0  0  0  0  0  0  0  0  0  0  0  0  0  0  0  0  0  0  0  0  0  0  0  0  0  0  0  0  0  0  0  0  0  0  0  0  0  0  0  0  0  0  0  0  0  0  0  0  0  0  0  0  0  0  0  0  0  0  0  0  0  0  0  0  0  0  0  0  0  0  0  0  0  0  0  0  0  0  0  0  0  0  0  0  0  0  0  0  0  0  0  0  0  0  0  0  0  0  0  0  0  0  0  0  0  0  0  0  0  0  0  0  0  0  0  0  0  0  0  0  0  0  0  0  0  0  0  0  0  0  0  0  0  0  0  0  0  0  0  0  0  0  0  0  0  0  0  0  0  0  0  0  0  0  0  0  0  0  0  0  0  0  0  0  0  0  0  0  0  0  0  0  0  0  0  0  0  0  0  0  0  0  0  0  0  0  0  0  0  0  0  0  0  0  0  0  0  0  0  0  0  0  0  0  0  0  0  0  0  0  0  0  0  0  0  0  0  0  0  0  0  0  0  0  0  0  0  0  0  0  0  0  0  0  0  0  0  0  0  0  0  0  0  0  0  0  0  0  0  0  0  0  0  0  0  0  0  0  0  0  0  0  0  0  0  0  0  0  0  0  0  0  0  0  0  0  0  0  0  0  0  0  0  0  0  0  0  0  0  0  0  0  0  0  0  0  0  0  0  0  0  0  0  0  0  0  0  0  0  0  0  0  0  0  0  0  0  0  0  0  0  0  0  0  0  0  0  0  0  0  0  0  0  0  0  0  0  0  0  0  0  0  0  0  0  0  0  0  0  0  0  0  0  0  0  0  0  0  0  0  0  0  0  0  0  0  0  0  0  0  0  0  0  0  0  0  0  0  0  0  0  0  0  0  0  0  0  0  0  0  0  0  0  0  0  0  0  0  0  0  0  0  0  0  0  0  0  0  0  0  0  0  0  0  0  0  0  0  0  0  0  0  0  0  0  0  0  0  0  0  0  0  0  0  0  0  0  0  0  0  0  0  0  0  0  0  0  0  0  0  0  0  0  0  0  0  0  0  0  0  0  0  0  0  0  0  0  0  0  0  0  0  0  0  0  0  0  0  0  0  0  0  0  0  0  0  0  0  0  0  0  0  0  0  0  0  0  0  0  0  0  0  0  0  0  0  0  0  0  0  0  0  0  0  0  0  0  0  0  0  0  0  0  0  0  0  0  0  0  0  0  0  0  0  0  0  0  0  0  0  0  0  0  0  0  0  0  0  0  0  0  0  0  0  0  0  0  0  0  0  0  0  0  0  0  0  0  0  0  0  0  0  0  0  0  0  0  0  0  0  0  0  0  0  0  0  0  0  0  0  0  0  0  0  0  0  0  0  0  0  0  0  0  0  0  0  0  0  0  0  0  0  0  0  0  0  0  0  0  0  0  0  0  0  0  0  0  0  0  0  0  0  0  0  0  0  0  0  0  0  0  0  0  0  0  0  0  0  0  0  0  0  0  0  0  0  0  0  0  0  0  0  0  0  0  0  0  0  0  0  0  0  0  0  0  0  0  0  0  0  0  0  0  0  0  0  0  0  0  0  0  0  0  0  0  0  0  0  0  0  0  0  0  0  0  0  0  0  0  0  0  0  0  0  0  0  0  0  0  0  0  0  0  0  0  0  0  0  0  0  0  0  0  0  0  0  0  0  0  0  0  0  0  0  0  0  0  0  0  0  0  0  0  0  0  0  0  0  0  0  0  0  0  0  0  0  0  0  0  0  0  0  0  0  0  0  0  0  0  0  0  0  0  0  0  0  0  0  0  0  0  0  0  0  0  0  0  0  0  0  0  0  0  0  0  0  0  0  0  0  0  0  0  0  0  0  0  0  0  0  0  0  0  0  0  0  0  0  0  0  0  0  0  0  0  0  0  0  0  0  0  0  0  0  0  0  0  0  0  0  0  0  0  0  0  0  0  0  0  0  0  0  0  0  0  0  0  0  0  0  0  0  0  0  0  0  0  0  0  0  0  0  0  0  0  0  0  0  0  0  0  0  0  0  0  0  0  0  0  0  0  0  0  0  0  0  0  0  0  0  0  0  0  0  0  0  0  0  0  0  0  0  0  0  0  0  0  0  0  0  0  0  0  0  0  0  0  0  0  0  0  0  0  0  0  0  0  0  0  0  0  0  0  0  0  0  0  0  0  0  0  0  0  0  0  0  0  0  0  0  0  0  0  0  0  0  0  0  0  0  0  0  0  0  0  0  0  0  0  0  0  0  0  0  0  0  0  0  0  0  0  0  0  0  0  0  0  0  0  0  0  0  0  0  0  0  0  0  0  0  0  0  0  0  0  0  0  0  0  0  0  0  0  0  0  0  0  0  0  0  0  0  0  0  0  0  0  0  0  0  0  0  0  0  0  0  0  0  0  0  0  0  0  0  0  0  0  0  0  0  0  0  0  0  0  0  0  0  0  0  0  0  0  0  0  0  0  0  0  0  0  0  0  0  0  0  0  0  0  0  0  0  0  0  0  0  0  0  0  0  0  0  0  0  0  0  0  0  0  0  0  0  0  0  0  0  0  0  0  0  0  0  0  0  0  0  0  0  0  0  0  0  0  0  0  0  0  0  0  0  0  0  0  0  0  0  0  0  0  0  0  0  0  0  0  0  0  0  0  0  0  0  0  0  0  0  0  0  0  0  0  0  0  0  0  0  0  0  0  0  0  0  0  0  0  0  0  0  0  0  0  0  0  0  0  0  0  0  0  0  0  0  0  0  0  0  0  0  0  0  0  0  0  0  0  0  0  0  0  0  0  0  0  0  0  0  0  0  0  0  0  0  0  0  0  0  0  0  0  0  0  0  0  0  0  0  0  0  0  0  0  0  0  0  0  0  0  0  0  0  0  0  0  0  0  0  0  0  0  0  0  0  0  0  0  0  0  0  0  0  0  0  0  0  0  0  0  0  0  0  0  0  0  0  0  0  0  0  0  0  0  0  0  0  0  0  0  0  0  0  0  0  0  0  0  0  0  0  0  0  0  0  0  0  0  0  0  0  0  0  0  0  0  0  0  0  0  0  0  0  0  0  0  0  0  0  0  0  0  0  0  0  0  0  0  0  0  0  0  0  0  0  0  0  0  0  0  0  0  0  0  0  0  0  0  0  0  0  0  0  0  0  0  0  0  0  0  0  0  0  0  0  0  0  0  0  0  0  0  0  0  0  0  0  0  0  0  0  0  0  0  0  0  0  0  0  0  0  0  0  0  0  0  0  0  0  0  0  0  0  0  0  0  0  0  0  0  0  0  0  0  0  0  0  0  0  0  0  0  0  0  0  0  0  0  0  0  0  0  0  0  0  0  0  0  0  0  0  0  0  0  0  0  0  0  0  0  0  0  0  0  0  0  0  0  0  0  0  0  0  0  0  0  0  0  0  0  0  0  0  0  0  0  0  0  0  0  0  0  0  0  0  0  0  0  0  0  0  0  0  0  0  0  0  0  0  0  0  0  0  0  0  0  0  0  0  0  0  0  0  0  0  0  0  0  0  0  0  0  0  0  0  0  0  0  0  0  0  0  0  0  0  0  0  0  0  0  0  0  0  0  0  0  0  0  0  0  0  0  0  0  0  0  0  0  0  0  0  0  0  0  0  0  0  0  0  0  0  0  0  0  0  0  0  0  0  0  0  0  0  0  0  0  0  0  0  0  0  0  0  0  0  0  0  0  0  0  0  0  0  0  0  0  0  0  0  0  0  0  0  0  0  0  0  0  0  0  0  0  0  0  0  0  0  0  0  0  0  0  0  0  0  0  0  0  0  0  0  0  0  0  0  0  0  0  0  0  0  0  0  0  0  0  0  0  0  0  0  0  0  0  0  0  0  0  0  0  0  0  0  0  0  0  0  0  0  0  0  0  0  0  0  0  0  0  0  0  0  0  0  0  0  0  0  0  0  0  0  0  0  0  0  0  0  0  0  0  0  0  0  0  0  0  0  0  0  0  0  0  0  0  0  0  0  0  0  0  0  0  0  0  0  0  0  0  0  0  0  0  0  0  0  0  0  0  0  0  0  0  0  0  0  0  0  0  0  0  0  0  0  0  0  0  0  0  0  0  0  0  0  0  0  0  0  0  0  0  0  0  0  0  0  0  0  0  0  0  0  0  0  0  0  0  0  0  0  0  0  0  0  0  0  0  0  0  0  0  0  0  0  0  0  0  0  0  0  0  0  0  0  0  0  0  0  0  0  0  0  0  0  0  0  0  0  0  0  0  0  0  0  0  0  0  0  0  0  0  0  0  0  0  0  0  0  0  0  0  0  0  0  0  0  0  0  0  0  0  0  0  0  0  0  0  0  0  0  0  0  0  0  0  0  0  0  0  0  0  0  0  0  0  0  0  0  0  0  0  0  0  0  0  0  0  0  0  0  0  0  0  0  0  0  0  0  0  0  0  0  0  0  0  0  0  0  0  0  0  0  0  0  0  0  0  0  0  0  0  0  0  0  0  0  0  0  0  0  0  0  0  0  0  0  0  0  0  0  0  0  0  0  0  0  0  0  0  0  0  0  0  0  0  0  0  0  0  0  0  0  0  0  0  0  0  0  0  0  0  0  0  0  0  0  0  0  0  0  0  0  0  0  0  0  0  0  0  0  0  0  0  0  0  0  0  0  0  0  0  0  0  0  0  0  0  0  0  0  0  0  0  0  0  0  0  0  0  0  0  0  0  0  0  0  0  0  0  0  0  0  0  0  0  0  0  0  0  0  0  0  0  0  0  0  0  0  0  0  0  0  0  0  0  0  0  0  0  0  0  0  0  0  0  0  0  0  0  0  0  0  0  0  0  0 
83:  0  0  0  0  0  0  0  0  0  0  0  0  0  0  0  0  0  0  0  0  0  0  0  0  0  0  0  0  0  0  0  0  0  0  0  0  0  0  0  0  0  0  0  0  0  0  0  0  0  0  0  0  0  0  0  0  0  0  0  0  0  0  0  0  0  0  0  0  0  0  0  0  0  0  0  0  0  0  0  0  0  1  0  0  0  0  0  0  0  0  0  0  0  0  0  0  0  0  0  0  0  0  0  0  0  0  0  0  0  0  0  0  0  0  0  0  0  0  0  0  0  0  0  0  0  0  0  0  0  0  0  0  0  0  0  0  0  0  0  0  0  0  0  0  0  0  0  0  0  0  0  0  0  0  0  0  0  0  0  0  0  0  0  0  0  0  0  0  0  0  0  0  0  0  0  0  0  0  0  0  0  0  0  0  0  0  0  0  0  0  0  0  0  0  0  0  0  0  0  0  0  0  0  0  0  0  0  0  0  0  0  0  0  0  0  0  0  0  0  0  0  0  0  0  0  0  0  0  0  0  0  0  0  0  0  0  0  0  0  0  0  0  0  0  0  0  0  0  0  0  0  0  0  0  0  0  0  0  0  0  0  0  0  0  0  0  0  0  0  0  0  0  0  0  0  0  0  0  0  0  0  0  0  0  0  0  0  0  0  0  0  0  0  0  0  0  0  0  0  0  0  0  0  0  0  0  0  0  0  0  0  0  0  0  0  0  0  0  0  0  0  0  0  0  0  0  0  0  0  0  0  0  0  0  0  0  0  0  0  0  0  0  0  0  0  0  0  0  0  0  0  0  0  0  0  0  0  0  0  0  0  0  0  0  0  0  0  0  0  0  0  0  0  0  0  0  0  0  0  0  0  0  0  0  0  0  0  0  0  0  0  0  0  0  0  0  0  0  0  0  0  0  0  0  0  0  0  0  0  0  0  0  0  0  0  0  0  0  0  0  0  0  0  0  0  0  0  0  0  0  0  0  0  0  0  0  0  0  0  0  0  0  0  0  0  0  0  0  0  0  0  0  0  0  0  0  0  0  0  0  0  0  0  0  0  0  0  0  0  0  0  0  0  0  0  0  0  0  0  0  0  0  0  0  0  0  0  0  0  0  0  0  0  0  0  0  0  0  0  0  0  0  0  0  0  0  0  0  0  0  0  0  0  0  0  0  0  0  0  0  0  0  0  0  0  0  0  0  0  0  0  0  0  0  0  0  0  0  0  0  0  0  0  0  0  0  0  0  0  0  0  0  0  0  0  0  0  0  0  0  0  0  0  0  0  0  0  0  0  0  0  0  0  0  0  0  0  0  0  0  0  0  0  0  0  0  0  0  0  0  0  0  0  0  0  0  0  0  0  0  0  0  0  0  0  0  0  0  0  0  0  0  0  0  0  0  0  0  0  0  0  0  0  0  0  0  0  0  0  0  0  0  0  0  0  0  0  0  0  0  0  0  0  0  0  0  0  0  0  0  0  0  0  0  0  0  0  0  0  0  0  0  0  0  0  0  0  0  0  0  0  0  0  0  0  0  0  0  0  0  0  0  0  0  0  0  0  0  0  0  0  0  0  0  0  0  0  0  0  0  0  0  0  0  0  0  0  0  0  0  0  0  0  0  0  0  0  0  0  0  0  0  0  0  0  0  0  0  0  0  0  0  0  0  0  0  0  0  0  0  0  0  0  0  0  0  0  0  0  0  0  0  0  0  0  0  0  0  0  0  0  0  0  0  0  0  0  0  0  0  0  0  0  0  0  0  0  0  0  0  0  0  0  0  0  0  0  0  0  0  0  0  0  0  0  0  0  0  0  0  0  0  0  0  0  0  0  0  0  0  0  0  0  0  0  0  0  0  0  0  0  0  0  0  0  0  0  0  0  0  0  0  0  0  0  0  0  0  0  0  0  0  0  0  0  0  0  0  0  0  0  0  0  0  0  0  0  0  0  0  0  0  0  0  0  0  0  0  0  0  0  0  0  0  0  0  0  0  0  0  0  0  0  0  0  0  0  0  0  0  0  0  0  0  0  0  0  0  0  0  0  0  0  0  0  0  0  0  0  0  0  0  0  0  0  0  0  0  0  0  0  0  0  0  0  0  0  0  0  0  0  0  0  0  0  0  0  0  0  0  0  0  0  0  0  0  0  0  0  0  0  0  0  0  0  0  0  0  0  0  0  0  0  0  0  0  0  0  0  0  0  0  0  0  0  0  0  0  0  0  0  0  0  0  0  0  0  0  0  0  0  0  0  0  0  0  0  0  0  0  0  0  0  0  0  0  0  0  0  0  0  0  0  0  0  0  0  0  0  0  0  0  0  0  0  0  0  0  0  0  0  0  0  0  0  0  0  0  0  0  0  0  0  0  0  0  0  0  0  0  0  0  0  0  0  0  0  0  0  0  0  0  0  0  0  0  0  0  0  0  0  0  0  0  0  0  0  0  0  0  0  0  0  0  0  0  0  0  0  0  0  0  0  0  0  0  0  0  0  0  0  0  0  0  0  0  0  0  0  0  0  0  0  0  0  0  0  0  0  0  0  0  0  0  0  0  0  0  0  0  0  0  0  0  0  0  0  0  0  0  0  0  0  0  0  0  0  0  0  0  0  0  0  0  0  0  0  0  0  0  0  0  0  0  0  0  0  0  0  0  0  0  0  0  0  0  0  0  0  0  0  0  0  0  0  0  0  0  0  0  0  0  0  0  0  0  0  0  0  0  0  0  0  0  0  0  0  0  0  0  0  0  0  0  0  0  0  0  0  0  0  0  0  0  0  0  0  0  0  0  0  0  0  0  0  0  0  0  0  0  0  0  0  0  0  0  0  0  0  0  0  0  0  0  0  0  0  0  0  0  0  0  0  0  0  0  0  0  0  0  0  0  0  0  0  0  0  0  0  0  0  0  0  0  0  0  0  0  0  0  0  0  0  0  0  0  0  0  0  0  0  0  0  0  0  0  0  0  0  0  0  0  0  0  0  0  0  0  0  0  0  0  0  0  0  0  0  0  0  0  0  0  0  0  0  0  0  0  0  0  0  0  0  0  0  0  0  0  0  0  0  0  0  0  0  0  0  0  0  0  0  0  0  0  0  0  0  0  0  0  0  0  0  0  0  0  0  0  0  0  0  0  0  0  0  0  0  0  0  0  0  0  0  0  0  0  0  0  0  0  0  0  0  0  0  0  0  0  0  0  0  0  0  0  0  0  0  0  0  0  0  0  0  0  0  0  0  0  0  0  0  0  0  0  0  0  0  0  0  0  0  0  0  0  0  0  0  0  0  0  0  0  0  0  0  0  0  0  0  0  0  0  0  0  0  0  0  0  0  0  0  0  0  0  0  0  0  0  0  0  0  0  0  0  0  0  0  0  0  0  0  0  0  0  0  0  0  0  0  0  0  0  0  0  0  0  0  0  0  0  0  0  0  0  0  0  0  0  0  0  0  0  0  0  0  0  0  0  0  0  0  0  0  0  0  0  0  0  0  0  0  0  0  0  0  0  0  0  0  0  0  0  0  0  0  0  0  0  0  0  0  0  0  0  0  0  0  0  0  0  0  0  0  0  0  0  0  0  0  0  0  0  0  0  0  0  0  0  0  0  0  0  0  0  0  0  0  0  0  0  0  0  0  0  0  0  0  0  0  0  0  0  0  0  0  0  0  0  0  0  0  0  0  0  0  0  0  0  0  0  0  0  0  0  0  0  0  0  0  0  0  0  0  0  0  0  0  0  0  0  0  0  0  0  0  0  0  0  0  0  0  0  0  0  0  0  0  0  0  0  0  0  0  0  0  0  0  0  0  0  0  0  0  0  0  0  0  0  0  0  0  0  0  0  0  0  0  0  0  0  0  0  0  0  0  0  0  0  0  0  0  0  0  0  0  0  0  0  0  0  0  0  0  0  0  0  0  0  0  0  0  0  0  0  0  0  0  0  0  0  0  0  0  0  0  0  0  0  0  0  0  0  0  0  0  0  0  0  0  0  0  0  0  0  0  0  0  0  0  0  0  0  0  0  0  0  0  0  0  0  0  0  0  0  0  0  0  0  0  0  0  0  0  0  0  0  0  0  0  0  0  0  0  0  0  0  0  0  0  0  0  0  0  0  0  0  0  0  0  0  0  0  0  0  0  0  0  0  0  0  0  0  0  0  0  0  0  0  0  0  0  0  0  0  0  0  0  0  0  0  0  0  0  0  0  0  0  0  0  0  0  0  0  0  0  0  0  0  0  0  0  0  0  0  0  0  0  0  0  0  0  0  0  0  0  0  0  0  0  0  0  0  0  0  0  0  0  0  0  0  0  0  0  0  0  0  0  0  0  0  0  0  0  0  0  0  0  0  0  0  0  0  0  0  0  0  0  0  0  0  0  0  0  0  0  0  0  0  0  0  0  0  0  0  0  0  0  0  0  0  0  0  0  0  0  0  0  0  0  0  0  0  0  0  0  0  0  0  0  0  0  0  0  0  0  0  0  0  0  0  0  0  0  0  0  0  0  0  0  0  0  0  0  0  0  0  0  0  0  0  0  0  0  0  0  0  0  0  0  0  0  0  0  0  0  0  0  0  0  0  0  0  0  0  0  0  0  0  0  0  0  0  0  0  0  0  0  0  0  0  0  0  0  0  0  0  0  0  0  0  0  0  0  0  0  0  0  0  0  0  0  0  0  0  0  0  0  0  0  0  0  0  0  0  0  0  0  0  0  0  0  0  0  0  0  0  0  0  0  0  0  0  0  0  0  0  0  0  0  0  0  0  0  0  0  0  0  0  0  0  0  0  0  0  0  0  0  0  0  0  0  0  0  0  0  0  0  0  0  0  0  0  0  0  0  0  0  0  0  0  0  0  0  0  0  0  0  0  0  0  0  0  0  0  0  0  0  0  0  0  0  0  0  0  0  0  0  0  0  0  0  0  0  0  0  0  0  0  0  0  0  0  0  0  0  0  0  0  0  0  0  0  0  0  0  0  0  0  0  0  0  0  0  0  0  0  0  0  0  0  0  0  0  0  0  0  0  0  0  0  0  0  0  0  0  0  0  0  0  0  0  0  0  0  0  0  0  0  0  0  0  0  0  0  0  0  0  0  0  0  0  0  0  0  0  0  0  0  0  0  0  0  0  0  0  0  0  0  0  0  0  0  0  0  0  0  0  0  0  0  0  0  0  0  0  0  0  0  0  0  0  0  0  0  0  0  0  0  0  0  0  0  0  0  0  0  0  0  0  0  0  0  0  0  0  0  0  0  0  0  0  0  0  0  0  0  0  0  0  0  0  0  0  0  0  0  0  0  0  0  0  0  0  0  0  0  0  0  0  0  0  0  0  0  0  0  0  0  0  0  0  0  0  0  0  0  0  0  0  0  0  0  0  0  0  0  0  0  0  0  0  0  0  0  0  0  0  0  0  0  0  0  0  0  0  0  0  0  0  0  0  0  0  0  0  0  0  0  0  0  0  0  0  0  0  0  0  0  0  0  0  0  0  0  0  0  0  0  0  0  0  0  0  0  0  0  0  0  0  0  0  0  0  0  0  0  0  0  0  0  0  0  0  0  0  0  0  0  0  0  0  0  0  0  0  0  0  0  0  0  0  0  0  0  0  0  0  0  0  0  0  0  0  0  0  0  0  0  0  0  0  0  0  0  0  0  0  0  0  0  0  0  0  0  0  0  0  0  0  0  0  0  0  0  0  0  0  0  0  0  0  0  0  0  0  0  0  0  0  0  0  0  0  0  0  0  0  0  0  0  0  0  0  0  0  0  0  0  0  0  0  0  0  0  0  0  0  0  0  0  0  0  0  0  0  0  0  0  0  0  0  0  0  0  0  0  0  0  0  0  0  0  0  0  0  0  0  0  0  0  0  0  0  0  0  0  0  0  0  0  0  0  0  0  0  0  0  0  0  0  0  0  0  0  0  0  0  0  0  0  0  0  0  0  0  0  0  0  0  0  0  0  0  0  0  0  0  0  0  0  0  0  0  0  0  0  0  0  0  0  0  0  0  0  0  0  0  0  0  0  0  0  0  0  0  0  0  0  0  0  0  0  0  0  0  0  0  0  0  0  0  0  0  0  0  0  0  0  0  0  0  0  0  0  0  0  0  0  0  0  0  0  0  0  0  0  0  0  0  0  0  0  0  0  0  0  0  0  0  0  0  0  0  0  0  0  0  0  0  0  0  0  0  0  0  0  0  0  0  0  0  0  0  0  0  0  0  0  0  0  0  0  0  0  0  0  0  0  0  0  0  0  0  0  0  0  0  0  0  0  0  0  0  0  0  0  0  0  0  0  0  0  0  0  0  0  0  0  0  0  0  0  0  0  0  0  0  0  0  0  0  0  0  0  0  0  0  0  0  0  0  0  0  0  0  0  0  0  0  0  0  0  0  0  0  0  0  0  0  0  0  0  0  0  0  0  0  0  0  0  0  0  0  0  0  0  0  0  0  0  0  0  0  0  0  0  0  0  0  0  0  0  0  0  0  0  0  0  0  0  0  0  0  0  0  0  0  0  0  0  0  0  0  0  0  0  0  0  0  0  0  0  0  0  0  0  0  0  0  0  0  0  0  0  0  0  0  0  0  0  0  0  0  0  0  0  0  0  0  0  0  0  0  0  0  0  0  0  0  0  0  0  0  0  0  0  0  0  0  0  0  0  0  0  0  0  0  0  0  0  0  0  0  0  0  0  0  0 